SOL SEMFREQ
CEND
  TITLE = Random vibe, cantilevered bar, beam, with cbush and plates
  ECHO = NONE
  SET 1 = 1, 2
  SET 2 = 1, 11, 13, 17
  DISPLACEMENT(PLOT,RPRINT,RALL) = 1
  ACCELERATION(PLOT,RPRINT,RALL) = 1
  FORCE(PLOT,RPRINT,RALL) = 2
  STRESS(PLOT,RPRINT,RALL) = 2
  SPC = 1
  FREQUENCY = 1
  METHOD = 1
  RANDOM = 200
SUBCASE 1
  DLOAD = 1
SUBCASE 2
  DLOAD = 2
SUBCASE 3
  DLOAD = 3
BEGIN BULK

PARAM,POST,-1
PARAM,OGEOM,NO
PARAM,AUTOSPC,YES
PARAM,K6ROT,100.
PARAM,GRDPNT,0
PARAM,WTMASS,.00259
PARAM,PRGPST,NO
PARAM,NOFISR,1
PARAM,RPOSTS1,1
PARAM,G,.05

RANDPS       200       1       1      1.      0.       1
RANDPS       200       2       2      1.      0.       1
RANDPS       200       3       3      1.      0.       1

TABRND1        1     LOG     LOG                                        +       
+            20.     .01    100.      .1   1000.      .1   2000.     .01+       
+           ENDT

EIGRL          1     20.   2000.               0                    MASS

$ subcase 1
DLOAD          1      1.      1.      10 
RLOAD2        10      20                      23            ACCE
SPCD          20       1       1      1.
    
$ subcase 2
DLOAD          2      1.      1.      11 
RLOAD2        11      21                      23            ACCE
SPCD          21       1       2      1.

$ sub case 3
DLOAD          3      1.      1.      12 
RLOAD2        12      22                      23            ACCE
SPCD          22       1       3      1.
                         
FREQ1          1     20.     10.     198
TABLED2       23      0.                                                +       
+             0.      1.      1.      1.    ENDT

SPC1           1  123456       1

$ Femap with NX Nastran Property 1 : BAR Property
PBAR           1       1     .026.6667-51.6667-54.5794-5      0.        +       
+            -.1    -.05      .1    -.05      .1     .05     -.1     .05+       
+         .84993   .8507      0.
$ Femap with NX Nastran Property 2 : bush
PBUSH          2       K1000000.1000000.1000000.    1.+9    1.+9    1.+9                
$ Femap with NX Nastran Property 3 : plate
PSHELL         3       1     .05       1               1              0.+       
+             0.                
$ Femap with NX Nastran Property 4 : BEAM Property (Rectangular Bar)
$ Femap with NX Nastran PropShape 4 : 1,0,0.1,0.4,0.,0.,0.,0.
$ Femap with NX Nastran PropOrient 4 : 1,0,0.,1.,2.,3.,4.,-1.,0.,0.
PBEAM          4       1     .045.3333-43.3333-5      0.1.1258-4      0.+       
+            -.2    -.05      .2    -.05      .2     .05     -.2     .05+       
+           YESA      1.                                                +       
+       .8498575  .85231                                                        
$ Femap with NX Nastran Material 1 : ISOTROPIC Material
MAT1           1    1.+73846154.      .3      .1      0.      0.        
GRID           1       0      0.      0.      0.       0
GRID           2       0     10.      0.      0.       0
GRID           3       0      6.      0.      0.       0
GRID           4       0      1.      0.      0.       0
GRID           5       0      2.      0.      0.       0
GRID           6       0      3.      0.      0.       0
GRID           7       0      4.      0.      0.       0
GRID           8       0      5.      0.      0.       0
GRID           9       0      6.      0.      0.       0
GRID          10       0      7.      0.      0.       0
GRID          11       0      8.      0.      0.       0
GRID          12       0      9.      0.      0.       0
GRID          13       0      8.     -2.      0.       0
GRID          14       0     10.     -2.      0.       0
GRID          16       0      8.     -1.      0.       0
GRID          19       0      9.     -1.      0.       0
GRID          20       0      9.     -2.      0.       0
GRID          22       0     10.     -1.      0.       0
GRID          24       0     12.      0.      0.       0
GRID          26       0     11.      0.      0.       0
CBAR           1       1       1       4      0.      1.      0.
CBAR           2       1       4       5      0.      1.      0.
CBAR           3       1       5       6      0.      1.      0.
CBAR           4       1       6       7      0.      1.      0.
CBAR           5       1       7       8      0.      1.      0.
CBAR           6       1       8       9      0.      1.      0.
CBAR           7       1       3      10      0.      1.      0.
CBAR           8       1      10      11      0.      1.      0.
CBAR           9       1      11      12      0.      1.      0.
CBAR          10       1      12       2      0.      1.      0.
CBUSH         11       2       9       3      1.      0.      0.       0
CQUAD4        12       3      11      16      19      12                
CQUAD4        13       3      16      13      20      19                
CQUAD4        14       3      12      19      22       2                
CQUAD4        15       3      19      20      14      22                
CBEAM         16       4       2      26      0.      1.      0.
CBEAM         17       4      26      24      0.      1.      0.

ENDDATA
