CEND
BEGIN BULK

PLOAD4,1,2,1.0
PLOAD4,1,999,1.0
PLOAD4,2,1000,1.0
PLOAD4,2,1001
#PLOAD4,2,

GRID,1,,0.0,0.0
GRID,2,,1.0,0.0
GRID,3,,1.0,1.0
GRID,4,,0.0,1.0
GRID,5,,0.0,0.0,1.0

CELAS2,1,1.0, 2,3
CONROD,1,2,3,1,1.0

CQUAD4,1,1,1,2,3,4
PSHELL,1,10,0.1
MAT1,10,3.0e7,,0.3
MAT2,10,3.0e7,,0.3

CTETRA,1,1,1,2,3,5
PSOLID,1,10


CELAS2,2,1.0, 2,3
CONROD,2,2,3,1,1.0

MAT4,100
MAT5,100

MAT4,200
MAT5,200

CMASS1,1,
CMASS2,1,

CORD2R,1,, 0.,0.,0., 0.,1.,0.,
,0.,0.,1.
CORD2C,1,, 0.,0.,0., 0.,1.,0.,
,0.,0.,1.

CORD2S,1,
CQUAD,101
CQUAD,102
ENDDATA
