INIT MASTER(S)
NASTRAN SYSTEM(442)=-1,SYSTEM(319)=1
ID cfast,Femap
SOL SESTATIC
TIME 10000
CEND
  TITLE = linear statics
  ECHO = NONE
  DISPLACEMENT(PLOT) = ALL
  SPC = 1
  LOAD = 1
BEGIN BULK
$ ***************************************************************************
$   Written by : Femap with NX Nastran
$   Version    : 11.2.0
$   Translator : NX Nastran
$   From Model : C:\Temp\cfast_prop_prop_example.modfem
$   Date       : Wed Nov 02 22:10:33 2016
$ ***************************************************************************
$
PARAM,POST,-1
$PARAM,OGEOM,NO
PARAM,AUTOSPC,YES
PARAM,K6ROT,100.
PARAM,GRDPNT,0
CORD2C         1       0      0.      0.      0.      0.      0.      1.+FEMAPC1
+FEMAPC1      1.      0.      1.        
CORD2S         2       0      0.      0.      0.      0.      0.      1.+FEMAPC2
+FEMAPC2      1.      0.      1.        
$ Femap with NX Nastran Load Set 1 : load
FORCE          1      62       0      1.      0.      0.   -100.
$ Femap with NX Nastran Constraint Set 1 : constraints
SPC1           1  123456       1
$ Femap with NX Nastran Property 1 : Plate
PSHELL         1       1     1.5       1               1              0.
$ Femap with NX Nastran Property 2 : WELD/FASTENER Property
PFAST          2     10.      -1       0    100.    100.    100.   1000.+       
+          1000.   1000.      0.      0.                                
$ Femap with NX Nastran Property 10 : PLATE Property
PSHELL        10       1     1.5       1               1              0.
$ Femap with NX Nastran Material 1 : Aluminum
MAT1           1  71000.             .33      0.      0.      0.        
GRID           1       0      0.      0.      0.       0
GRID           2       0166.6667      0.      0.       0
GRID           3       0333.3333      0.      0.       0
GRID           4       0    500.      0.      0.       0
GRID           5       0666.6667      0.      0.       0
GRID           6       0833.3333      0.      0.       0
GRID           7       0   1000.      0.      0.       0
GRID           8       0   1000.166.6667      0.       0
GRID           9       0   1000.333.3333      0.       0
GRID          10       0   1000.    500.      0.       0
GRID          11       0   1000.666.6667      0.       0
GRID          12       0   1000.833.3333      0.       0
GRID          13       0   1000.   1000.      0.       0
GRID          14       0833.3333   1000.      0.       0
GRID          15       0666.6667   1000.      0.       0
GRID          16       0    500.   1000.      0.       0
GRID          17       0333.3333   1000.      0.       0
GRID          18       0166.6667   1000.      0.       0
GRID          19       0      0.   1000.      0.       0
GRID          20       0      0.833.3333      0.       0
$ ... 80 like lines cut
CQUAD4         1       1       1       2      25      24                
CQUAD4         2       1       2       3      26      25                
CQUAD4         3       1       3       4      27      26                
CQUAD4         4       1       4       5      28      27                
CQUAD4         5       1       5       6      29      28                
CQUAD4         6       1       6       7       8      29                
CQUAD4         7       1      24      25      30      23                
CQUAD4         8       1      25      26      31      30                
CQUAD4         9       1      26      27      32      31                
CQUAD4        10       1      27      28      33      32                
CQUAD4        11       1      28      29      34      33                
CQUAD4        12       1      29       8       9      34                
CQUAD4        13       1      23      30      35      22                
CQUAD4        14       1      30      31      36      35                
CQUAD4        15       1      31      32      37      36                
CQUAD4        16       1      32      33      38      37                
CQUAD4        17       1      33      34      39      38                
CQUAD4        18       1      34       9      10      39                
CQUAD4        19       1      22      35      40      21                
CQUAD4        20       1      35      36      41      40                
$ ... 52 like lines cut
CFAST         73       2    PROP       1      10      99                        
CFAST         74       2    PROP       1      10     100                        
ENDDATA 6f8f7d3f
