$EXECUTIVE CONTROL DECK
$ NASTRAN input file created by the Patran 2012.2 64-Bit input file
$ translator on December  13, 2012 at 19:19:21.
$ Direct Text Input for Nastran System Cell Section
$ Direct Text Input for File Management Section
$ Direct Text Input for Executive Control
$ Buckling Analysis, Database
SOL 105
CEND
$CASE CONTROL DECK
SET 1 = 9905 THRU 10563, 10564
SET 2 = 11031 THRU 11925, 11926
NLOPRM OUTCTRL=(SOLUTION,INTERM), MPCPCH=(OTIME,STEP)
ECHO = NONE
TITLE = MD NASTRAN JOB CREATED ON 27-OCT-11 AT 07:02:41
SUBCASE 1
    SET 3 = 1
    DISPLACEMENT(PLOT,SORT1,REAL) = ALL
    GPSTRAIN = 3
    LOAD = 2
    SPC = 2
    STRESS(PLOT,SORT1,REAL,VONMISES,BILIN) = ALL
    STRFIELD = ALL
    SUBTITLE = BEND_A1
SUBCASE 2
    SET 4 = 9905 THRU 10563, 10564
    SURFACE 1 SET 4,FIBRE ALL,SYSTEM CORD 1,AXIS X1,NORMAL X3,
    METHOD = 1
    OUTPUT(POST)
    PRESSURE(PLOT,SORT1,REAL) = ALL
    SPC = 2
    SUBTITLE = BEND_A1
BEGIN BULK
$PARAMS
$ Direct Text Input for Bulk Data
PARAM       POST      -1
PARAM   PRTMAXIM     YES
$NODES
$ Nodes of Group : FEM_A1
GRID       11031       1-145.524-1.43-13 582.085       1
GRID       11032       1-130.531-1.43-13 582.085       1
GRID       11033       1-115.538-1.43-13 582.085       1
GRID       11034       1-100.545-1.43-13 582.085       1
GRID       11035       1-85.5515-1.43-13 582.085       1
GRID       11036       1-70.5584-1.43-13 582.085       1
GRID       11037       1-55.5653-1.43-13 582.085       1
GRID       11038       1-40.5721-1.43-13 582.085       1
GRID       11039       1 -25.579-1.43-13 582.085       1
GRID       11040       1-10.5859-1.43-13 582.085       1
GRID       11041       1  4.4072-1.43-13 582.086       1
GRID       11042       1 19.4003-1.43-13 582.086       1
GRID       11043       1 34.3934-1.43-13 582.086       1
GRID       11044       1 49.3865-1.43-13 582.086       1
GRID       11045       1 64.3796-1.43-13 582.086       1
GRID       11046       1 79.3728-1.43-13 582.086       1
GRID       11047       1 94.3658-1.43-13 582.086       1
GRID       11048       1 109.359-1.43-13 582.086       1
GRID       11049       1 124.352-1.43-13 582.086       1
GRID       11050       1 139.345-1.43-13 582.086       1
$ ... 3635 like lines cut
$ELEMENTS_WITH_PROPERTIES
$ Elements and Element Properties for region : SKIN
PSHELL         1       1      3.       1               1
$ Pset: "SKIN" will be imported as: "pshell.1"
CQUAD4     11271       1   11255   11256   12752   12751
CQUAD4     11272       1   11256   11257   12753   12752
CQUAD4     11273       1   11257   11258   12754   12753
CQUAD4     11274       1   11258   11259   12755   12754
CQUAD4     11275       1   11259   11260   12756   12755
CQUAD4     11276       1   11260   11261   12757   12756
CQUAD4     11277       1   11261   11262   12758   12757
CQUAD4     11278       1   11262   11263   12759   12758
CQUAD4     11279       1   11263   11264   12760   12759
CQUAD4     11280       1   11264   11265   12761   12760
CQUAD4     11281       1   11265   11266   12762   12761
CQUAD4     11282       1   11266   11267   12763   12762
CQUAD4     11283       1   11267   11268   12764   12763
CQUAD4     11284       1   11268   11269   12765   12764
CQUAD4     11285       1   11269   11270   12766   12765
CQUAD4     11286       1   11270   11271   12767   12766
CQUAD4     11287       1   11271   11272   12768   12767
CQUAD4     11288       1   11272   11273   12769   12768
CQUAD4     11289       1   11273   11274   12770   12769
CQUAD4     11290       1   11274   11275   12771   12770
$ ... 2125 like lines cut
CTRIA3     14122       1   15866   11031   11032
CQUAD4     14123       1   15866   11032   11033   15865
CQUAD4     14124       1   15865   11033   11034   15864
CQUAD4     14125       1   15864   11034   11035   15863
CQUAD4     14126       1   15863   11035   11036   15862
CQUAD4     14127       1   15862   11036   11037   15861
CQUAD4     14128       1   11086   15879   15880   11085
CQUAD4     14129       1   15879   15878   15881   15880
CQUAD4     14130       1   15878   15877   15882   15881
CQUAD4     14131       1   15877   15876   15883   15882
CQUAD4     14132       1   15876   15875   15884   15883
CQUAD4     14133       1   15875   15874   15885   15884
CQUAD4     14134       1   15874   15873   15886   15885
CQUAD4     14135       1   15873   15872   15887   15886
CQUAD4     14136       1   15872   15871   15888   15887
CQUAD4     14137       1   15871   15870   15889   15888
CQUAD4     14138       1   15870   15869   15890   15889
CQUAD4     14139       1   15869   15868   15891   15890
CQUAD4     14140       1   15868   15867   15815   15891
CQUAD4     14141       1   11037   11038   15860   15861
CQUAD4     14142       1   11038   11039   15892   15860
$ ... 279 like lines cut
CTRIA3     14422       1   16126   16082   16083
CQUAD4     14423       1   16098   16099   16127   16145
CQUAD4     14424       1   16097   16098   16145   16146
CQUAD4     14425       1   16096   16097   16146   16147
CQUAD4     14426       1   16095   16096   16147   16148
CQUAD4     14427       1   16094   16095   16148   16100
CQUAD4     14428       1   16101   16100   16148   16149
CQUAD4     14429       1   16102   16101   16149   16150
CQUAD4     14430       1   16103   16102   16150   16151
CQUAD4     14431       1   16104   16103   16151   16152
CQUAD4     14432       1   16105   16104   16152   16153
CQUAD4     14433       1   16106   16105   16153   16154
CQUAD4     14434       1   16107   16106   16154   16155
CQUAD4     14435       1   16108   16107   16155   16156
CQUAD4     14436       1   16109   16108   16156   16157
CQUAD4     14437       1   16110   16109   16157   16158
CQUAD4     14438       1   16111   16110   16158   16159
CQUAD4     14439       1   16112   16111   16159   16160
CQUAD4     14440       1   16113   16112   16160   16161
CQUAD4     14441       1   16114   16113   16161   16162
CQUAD4     14442       1   16115   16114   16162   16141
$ ... 21 like lines cut
CTRIA3     14464       1   16140   16141   16162
CQUAD4     14465       1   16128   16129   16175   16165
CQUAD4     14466       1   16129   16130   16176   16175
CQUAD4     14467       1   16130   16131   16177   16176
CQUAD4     14468       1   16131   16132   16178   16177
CQUAD4     14469       1   16132   16133   16179   16178
CQUAD4     14470       1   16133   16134   16180   16179
CQUAD4     14471       1   16134   16135   16181   16180
CQUAD4     14472       1   16135   16136   16173   16181
CQUAD4     14473       1   16173   16136   16137   16174
CQUAD4     14474       1   16173   16157   16182   16181
CQUAD4     14475       1   16182   16172   16180   16181
CQUAD4     14476       1   16163   16164   16183   16166
CQUAD4     14477       1   16164   16165   16175   16183
CQUAD4     14478       1   16167   16166   16183   16184
CQUAD4     14479       1   16168   16167   16184   16176
CQUAD4     14480       1   16169   16168   16176   16177
CQUAD4     14481       1   16170   16169   16177   16178
CQUAD4     14482       1   16179   16180   16172   16171
CQUAD4     14483       1   16171   16170   16178   16179
CQUAD4     14484       1   16176   16184   16183   16175
CQUAD4     14485       1   15896   15942   15941   15895
CQUAD4     14486       1   15940   15939   15893   15894
CQUAD4     14487       1   15894   15895   15941   15940
CTRIA3     14488       1   16185   11758   11757
CQUAD4     14489       1   16185   11757   11756   16186
CQUAD4     14490       1   16186   11756   11755   16187
CQUAD4     14491       1   16187   11755   11754   16188
CQUAD4     14492       1   16188   11754   11753   16189
CQUAD4     14493       1   16189   11753   11752   16190
CQUAD4     14494       1   11703   16249   16250   11704
CQUAD4     14495       1   16249   16248   16251   16250
CQUAD4     14496       1   16248   16247   16252   16251
CQUAD4     14497       1   16247   16246   16253   16252
CQUAD4     14498       1   16246   16245   16254   16253
CQUAD4     14499       1   16245   16244   16255   16254
CQUAD4     14500       1   16244   16243   16256   16255
CQUAD4     14501       1   16243   16242   16257   16256
CQUAD4     14502       1   16242   16241   16258   16257
CQUAD4     14503       1   16241   16240   16259   16258
CQUAD4     14504       1   16240   16239   16260   16259
CQUAD4     14505       1   16239   16238   16261   16260
CQUAD4     14506       1   16238   16237   16236   16261
CQUAD4     14507       1   11705   11704   16250   16262
CQUAD4     14508       1   11706   11705   16262   16263
$ ... 321 like lines cut
CTRIA3     14830       1   16547   16528   16529
CQUAD4     14831       1   16527   16528   16555   16549
CQUAD4     14832       1   16526   16527   16549   16550
CQUAD4     14833       1   16525   16526   16550   16551
CQUAD4     14834       1   16524   16525   16551   16552
CQUAD4     14835       1   16523   16524   16552   16553
CQUAD4     14836       1   16522   16523   16553   16554
CQUAD4     14837       1   16521   16522   16554   16539
CQUAD4     14838       1   16528   16547   16546   16555
CQUAD4     14839       1   16537   16538   16556   16540
CQUAD4     14840       1   16538   16539   16554   16556
CQUAD4     14841       1   16541   16540   16556   16557
CQUAD4     14842       1   16542   16541   16557   16553
CQUAD4     14843       1   16543   16542   16553   16552
CQUAD4     14844       1   16544   16543   16552   16551
CQUAD4     14845       1   16544   16551   16550   16545
CQUAD4     14846       1   16546   16545   16549   16555
CTRIA3     14847       1   16545   16550   16549
CQUAD4     14848       1   16553   16557   16556   16554
CQUAD4     14849       1   16520   16488   16489   16490
CQUAD4     14850       1   16302   16301   16399   16345
CQUAD4     14851       1   16345   16346   16303   16302
CQUAD4     14852       1   16464   16463   16520   16490
CQUAD4     14853       1   16490   16491   16465   16464
CQUAD4     14854       1   16191   16190   11752   11751
CQUAD4     14855       1   11751   11750   16351   16191
CQUAD4     14856       1   16351   16350   16192   16191
$ Elements and Element Properties for region : STRINGER
PSHELL         2       1      2.       1               1
$ Pset: "STRINGER" will be imported as: "pshell.2"
CQUAD4      9905       2   11031   11032   11088   11087
CQUAD4      9906       2   11032   11033   11089   11088
CQUAD4      9907       2   11033   11034   11090   11089
CQUAD4      9908       2   11034   11035   11091   11090
CQUAD4      9909       2   11035   11036   11092   11091
CQUAD4      9910       2   11036   11037   11093   11092
CQUAD4      9911       2   11037   11038   11094   11093
CQUAD4      9912       2   11038   11039   11095   11094
CQUAD4      9913       2   11039   11040   11096   11095
CQUAD4      9914       2   11040   11041   11097   11096
CQUAD4      9915       2   11041   11042   11098   11097
CQUAD4      9916       2   11042   11043   11099   11098
CQUAD4      9917       2   11043   11044   11100   11099
CQUAD4      9918       2   11044   11045   11101   11100
CQUAD4      9919       2   11045   11046   11102   11101
CQUAD4      9920       2   11046   11047   11103   11102
CQUAD4      9921       2   11047   11048   11104   11103
CQUAD4      9922       2   11048   11049   11105   11104
CQUAD4      9923       2   11049   11050   11106   11105
CQUAD4      9924       2   11050   11051   11107   11106
$ ... 640 like lines cut
$MATERIALS
$ Referenced Material Records
$ Material Record : ALU
$ Description of Material : Date: 27-Oct-11           Time: 06:50:38
MAT1           1  72000.             .35
$LOADS
$ Pressures of Total Load Set : BENDING
FORCE          1   11310           67.13      0.      0.      1.
FORCE          1   12806           67.13      0.      0.      1.
FORCE          1   12806           67.13      0.      0.      1.
FORCE          1   12862           67.13      0.      0.      1.
FORCE          1   12862         67.1295      0.      0.      1.
FORCE          1   12918         67.1295      0.      0.      1.
FORCE          1   12918           67.13      0.      0.      1.
FORCE          1   12974           67.13      0.      0.      1.
FORCE          1   12974           67.13      0.      0.      1.
FORCE          1   13030           67.13      0.      0.      1.
FORCE          1   13030           67.13      0.      0.      1.
FORCE          1   13086           67.13      0.      0.      1.
FORCE          1   13086         67.1295      0.      0.      1.
FORCE          1   13142         67.1295      0.      0.      1.
FORCE          1   13142           67.13      0.      0.      1.
FORCE          1   13198           67.13      0.      0.      1.
FORCE          1   13198           67.13      0.      0.      1.
FORCE          1   13254           67.13      0.      0.      1.
FORCE          1   13254           67.13      0.      0.      1.
FORCE          1   13310           67.13      0.      0.      1.
$ ... 84 like lines cut
LOAD           2      1.      1.       1
$DYNAMIC
EIGRL          1      0.              10
$SPCs
$ Displacement Constraints of Load Set : FIXED_BENDING_123456
SPC1           1  123456   11031   11087   11143   11199   11255   11311
           11367   11423   11479   11535   11591   11647   11703   11759
           11815   11871   12751   12807   12863   12919   12975   13031
           13087   13143   13199   13255   13311   13367   13535   13591
           13647   13703   13759   13815   13871   13927   13983   14039
           14095   14151   14319   14375   14431   14487   14543   14599
           14655   14711   14767   14823   14879   14935
SPC1           1  123456   16237   16238   16239   16240   16241   16242
           16243   16244   16245   16246   16247   16248   16249
$ Loads for Load Case : bend_A1
SPCADD         2       1
$COORDS
$ Force or value sum: 6981.506226
$ Referenced Coordinate Frames
CORD2R         1        1.137-13   1200.      0. 291.048 2364.17-2.94-13
         1164.17 908.952 -4.8-18
ENDDATA
