$$
$$ Optistruct Input Deck Generated by HyperMesh Version  : 2023.0.0.43
$$ Generated using HyperMesh-Optistruct Template Version : 2023.0.0.43
$$
$$   Template:  optistruct
$$
$$
$$ optistruct
%defrepwidth 0.0,bulk
%defrepsym L1=1.0
%defrepsym L2=1.0
$
SYSSETTING(SKIP10FIELD=CHECK)
CSTRAIN(OUTPUT2,NDIV=1) = YES
CSTRESS(OUTPUT2,NDIV=1) = ALL
$$------------------------------------------------------------------------------$
$$                      Case Control Cards                                      $
$$------------------------------------------------------------------------------$
$
$HMNAME LOADSTEP               1"loadcase01"       1
$
SUBCASE        1
  LABEL loadcase01
ANALYSIS STATICS
  SPC =        1
  LOAD =        2
$$--------------------------------------------------------------
$$ HYPERMESH TAGS 
$$--------------------------------------------------------------
$$BEGIN TAGS
$$END TAGS
$
BEGIN BULK
$
$HMNAME PLYS                   1"ply0"
$HWCOLOR PLYS                  1      26
PLY,1,2,0.00594,0.0,YES,,,UNI,
+,3,
$
$HMNAME PLYS                   2"ply45"
$HWCOLOR PLYS                  2       2
PLY,2,2,0.00594,45.0,YES,,,UNI,
+,3,
$
$HMNAME PLYS                   3"ply90"
$HWCOLOR PLYS                  3      23
PLY,3,2,0.00594,90.0,YES,,,UNI,
+,3,
$
$HMNAME PLYS                   4"ply-45"
$HWCOLOR PLYS                  4       2
PLY,4,2,0.00594,-45.0,YES,,,UNI,
+,3,
$$
$$  Stacking Information for Ply-Based Composite Definition
$$
$
$HMSET        1        1 "center_point_load" 18
$HMSETTYPE         1 "non-ordered" 18
SET,1,GRID,LIST,
+,74,
$
$HMSET        2        1 "hinge_edges" 18
$HMSETTYPE         2 "non-ordered" 18
SET,2,GRID,LIST,
+,50,49,48,47,46,45,44,43,
+,42,41,40,39,38,37,36,35,
+,34,33,32,31,30,51,52,53,
+,54,55,56,57,58,59,60,61,
+,62,63,64,65,66,67,68,69,
$
$HMSET        3        2 "ALL" 18
$HMSETTYPE         3 "non-ordered" 18
SET,3,ELEM,LIST,
+,15,14,13,12,11,10,9,8,
+,7,6,5,4,3,2,1,16,
+,17,18,19,20,21,22,23,24,
+,25,26,27,28,29,30,31,32,
+,33,34,35,36,37,38,39,40,
+,41,42,43,44,45,46,47,48,
+,49,50,51,52,53,54,55,56,
+,57,58,59,60,61,62,63,64,
+,65,66,67,68,69,70,71,72,
+,73,74,75,76,77,78,79,80,
+,81,82,83,84,85,86,87,88,
+,89,90,91,92,93,94,95,96,
+,97,98,99,100,
$
$HMSET        4        2 "corners" 18
$HMSETTYPE         4 "non-ordered" 18
SET,4,ELEM,LIST,
+,17,21,23,36,37,39,57,59,
+,60,77,78,79,
$
$HMSET        5        2 "center" 18
$HMSETTYPE         5 "non-ordered" 18
SET,5,ELEM,LIST,
+,15,14,13,12,11,10,9,8,
+,7,6,5,4,3,2,1,16,
+,19,20,22,23,24,25,26,27,
+,28,29,30,31,32,33,34,35,
+,38,40,41,42,43,44,45,46,
+,47,48,49,50,51,52,53,54,
+,55,56,58,61,62,63,64,65,
+,66,67,68,69,70,71,72,73,
+,74,75,76,80,81,82,83,84,
+,85,86,87,88,89,90,91,92,
+,93,94,95,96,97,98,99,100,

$HMNAME SYSTCOL        1 "auto1"
$HWCOLOR SYSTCOL        1       17
$$
$$  SYSTEM Data
$$
CORD1R,1,40,152,36,
$$
$$  GRID Data
$$
GRID,30,,0.0,-1.0,0.0,
GRID,31,,0.0,-0.9,0.0,
GRID,32,,0.0,-0.8,0.0,
GRID,33,,-5.5511151231258-17,-0.7,0.0,
GRID,34,,0.0,-0.6,0.0,
GRID,35,,0.0,-0.5,0.0,
GRID,36,,0.0,-0.4,0.0,
GRID,37,,0.0,-0.3,0.0,
GRID,38,,0.0,-0.2,0.0,
GRID,39,,0.0,-0.1,0.0,
GRID,40,,0.0,0.0,0.0,
GRID,41,,-0.1,0.0,0.0,
GRID,42,,-0.2,0.0,0.0,
GRID,43,,-0.3,-1.1102230246252-16,0.0,
GRID,44,,-0.4,-1.1102230246252-16,0.0,
GRID,45,,-0.5,-1.1102230246252-16,0.0,
GRID,46,,-0.6,-1.1102230246252-16,0.0,
GRID,47,,-0.7,-1.1102230246252-16,0.0,
GRID,48,,-0.8,0.0,0.0,
GRID,49,,-0.9,-1.1102230246252-16,0.0,
$ ... 102 like lines cut
$$
$$  CQUAD4 Elements
$$
$HMCOMP ID                     1       1       4
CQUAD4,1,1,83,88,79,80,0.0,
CQUAD4,2,1,88,73,74,79,0.0,
CQUAD4,3,1,84,87,88,83,0.0,
CQUAD4,4,1,87,72,73,88,0.0,
CQUAD4,5,1,85,89,87,84,0.0,
CQUAD4,6,1,89,71,72,87,0.0,
CQUAD4,7,1,53,54,90,86,0.0,
CQUAD4,8,1,86,90,89,85,0.0,
CQUAD4,9,1,54,55,70,90,0.0,
CQUAD4,10,1,90,70,71,89,0.0,
CQUAD4,11,1,47,91,93,46,0.0,
CQUAD4,12,1,46,93,82,45,0.0,
CQUAD4,13,1,91,92,94,93,0.0,
CQUAD4,14,1,93,94,81,82,0.0,
CQUAD4,15,1,92,84,83,94,0.0,
CQUAD4,16,1,94,83,80,81,0.0,
CQUAD4,17,1,50,51,95,49,0.0,
CQUAD4,18,1,49,95,96,48,0.0,
CQUAD4,19,1,48,96,91,47,0.0,
CQUAD4,20,1,86,97,52,53,-180.0,
$ ... 80 like lines cut
$
$$
$$------------------------------------------------------------------------------$
$$    HyperMesh name and color information for generic components               $
$$------------------------------------------------------------------------------$
$HMNAME COMP                   1"Plate"        1 "composite_pcomp" 4 
$HWCOLOR COMP                  1      55
$

$

$
$$
$$  PCOMP Data
$$
$HMNAME PROP                   1"composite_pcomp" 4
$HWCOLOR PROP                  1      40
PCOMP,1,,,,,,,,
+,2,0.00594,0.0,YES,2,0.00594,45.0,YES,
+,2,0.00594,90.0,YES,2,0.00594,-45.0,YES,

$$
$$  MAT1 Data
$$
$HMNAME MAT                    1"Al Alloy (Elastic)" "MAT1"
$HWCOLOR MAT                   1      11
MAT1,1,10000000.0,,0.3,,,,,
$$
$$  MAT8 Data
$$
$HMNAME MAT                    2"fakemat" "MAT8"
$HWCOLOR MAT                   2      43
MAT8,2,10000000.0,10000000.0,0.32,100000.0,100000.0,100000.0,,
$$
$$------------------------------------------------------------------------------$
$$ HyperMesh Commands for loadcollectors name and color information $
$$------------------------------------------------------------------------------$
$HMNAME LOADCOL                1"spcs"
$HWCOLOR LOADCOL               1      37
$$
$HMNAME LOADCOL                2"center_load"
$HWCOLOR LOADCOL               2      13
$$
$$
$$  SPC Data
$$
SPC,1,2,3,     0.0,
+,GSET
$$
$$  PLOAD4 Data
$$
PLOAD4,2,40,10.0,,,,,,
PLOAD4,2,39,10.0,,,,,,
PLOAD4,2,38,10.0,,,,,,
PLOAD4,2,37,10.0,,,,,,
PLOAD4,2,36,10.0,,,,,,
PLOAD4,2,35,10.0,,,,,,
PLOAD4,2,34,10.0,,,,,,
PLOAD4,2,33,10.0,,,,,,
PLOAD4,2,32,10.0,,,,,,
PLOAD4,2,31,10.0,,,,,,
PLOAD4,2,30,10.0,,,,,,
PLOAD4,2,29,10.0,,,,,,
PLOAD4,2,28,10.0,,,,,,
PLOAD4,2,27,10.0,,,,,,
PLOAD4,2,26,10.0,,,,,,
PLOAD4,2,25,10.0,,,,,,
PLOAD4,2,24,10.0,,,,,,
PLOAD4,2,23,10.0,,,,,,
PLOAD4,2,22,10.0,,,,,,
PLOAD4,2,21,10.0,,,,,,
$ ... 80 like lines cut
ENDDATA
$$
$$------------------------------------------------------------------------------$$
$$        Data Definition for AutoDV                                            $$
$$------------------------------------------------------------------------------$$
$$
$$-----------------------------------------------------------------------------$$
$$        Design Variables Card for Control Perturbations                      $$
$$-----------------------------------------------------------------------------$$
$$
$$------------------------------------------------------------------------------$
$$        Domain Element Definitions                                            $
$$------------------------------------------------------------------------------$
$$
$$------------------------------------------------------------------------------$$
$$            Control Perturbation                                              $$
$$------------------------------------------------------------------------------$$
