SOL 101
CEND
SUBCASE 1
  LOAD = 1000
  DISP = ALL
  STRESS = ALL
  SPC = 1
BEGIN BULK
GRID,1,0, 0.,0.,0.,0,123456
GRID,2,0, 1.,0.,0.,0,23456
GRID,3,0, 3.,0.,0.,0,23456
$SPC1,1,123456,1

CONROD,10,1,2,100, 2.0
CROD,20,20,2,3
PROD,20,100,4.
MAT1,100,1e7,,0.3
FORCE,1000,3,0, 1., 1.
ENDDATA
