$EXECUTIVE CONTROL DECK
$ NASTRAN input file created by the MSC MSC.Nastran input file
$ translator ( MSC.Patran 13.1.116 ) on January   28, 2012 at 12:59:35.
$ Direct Text Input for Nastran System Cell Section
$ Direct Text Input for File Management Section
$ Linear Static Analysis, Database
SOL 101   $ stuff
$ Direct Text Input for Executive Control
CEND
$CASE CONTROL DECK
ECHO = NONE
TITLE = MSC.Nastran job created on 28-Jan-12 at 12:52:32
SUBCASE 1
   DISPLACEMENT(SORT1,REAL)=ALL
   LOAD = 2
   SPC = 2
   SPCFORCES(SORT1,REAL)=ALL
   STRESS(SORT1,REAL,VONMISES,BILIN)=ALL
   SUBTITLE=Default
BEGIN BULK
$PARAMS
PARAM    POST    -1
PARAM   PRTMAXIM YES
$NODES
GRID     1              .513061 1.49287 .811943
GRID     2              .523257 .859242 .831558
GRID     3              .511411 .490321 .480616
GRID     4              .499951 1.45859 1.49985
GRID     5              .486939 1.49287 2.18777
GRID     6              .473466 .462498 2.52883
GRID     7              .476743 .859339 2.16805
GRID     8              .499951 .73106  1.49985
GRID     9              1.      1.52546 .473247
GRID     10             1.      .442442 .452206
GRID     11             1.      .976036 .507736
GRID     12             1.      .527678 2.50749
GRID     13             1.      .731012 1.81262
GRID     14             1.      .577233 1.02027
GRID     15             1.      1.24412 2.48353
GRID     16             1.      1.4585  1.83091
GRID     17             1.      1.32147 1.12276
GRID     18             1.      .666667  0.
GRID     19             1.      1.33347  0.
GRID     20             .499997 1.61112  0.
$ ... 52 like lines cut
$ELEMENTS_WITH_PROPERTIES
PSOLID   1       1       0
CTETRA   1       1       8       13      67      33
CTETRA   2       1       8       7       62      59
CTETRA   3       1       8       45      58      66
CTETRA   4       1       8       7       67      13
CTETRA   5       1       8       58      45      59
CTETRA   6       1       7       46      6       56
CTETRA   7       1       7       5       15      16
CTETRA   8       1       7       34      13      12
CTETRA   9       1       15      12      48      7
CTETRA   10      1       7       5       62      55
CTETRA   11      1       67      34      13      7
CTETRA   12      1       67      46      6       7
CTETRA   13      1       8       66      67      45
CTETRA   14      1       5       52      42      54
CTETRA   15      1       7       4       16      13
CTETRA   16      1       7       15      5       72
CTETRA   17      1       5       4       50      16
CTETRA   18      1       5       50      62      42
CTETRA   19      1       3       2       22      60
CTETRA   20      1       60      3       58      57
$ ... 166 like lines cut
$MATERIALS
MAT1     1      3.+7            .3      1.              70.
$LOADS
FORCE    1       9       0      1000.   1.       0.      0.
FORCE    1       10      0      1000.   1.       0.      0.
FORCE    1       11      0      1000.   1.       0.      0.
FORCE    1       12      0      1000.   1.       0.      0.
FORCE    1       13      0      1000.   1.       0.      0.
FORCE    1       14      0      1000.   1.       0.      0.
FORCE    1       15      0      1000.   1.       0.      0.
FORCE    1       16      0      1000.   1.       0.      0.
FORCE    1       17      0      1000.   1.       0.      0.
FORCE    1       18      0      1000.   1.       0.      0.
FORCE    1       19      0      1000.   1.       0.      0.
FORCE    1       23      0      1000.   1.       0.      0.
FORCE    1       29      0      1000.   1.       0.      0.
FORCE    1       31      0      1000.   1.       0.      0.
FORCE    1       32      0      1000.   1.       0.      0.
FORCE    1       33      0      1000.   1.       0.      0.
FORCE    1       34      0      1000.   1.       0.      0.
FORCE    1       35      0      1000.   1.       0.      0.
FORCE    1       36      0      1000.   1.       0.      0.
FORCE    1       37      0      1000.   1.       0.      0.
FORCE    1       38      0      1000.   1.       0.      0.
FORCE    1       47      0      1000.   1.       0.      0.
FORCE    1       48      0      1000.   1.       0.      0.
LOAD     2      1.      1.       1
$SPCs
SPC1     1       123456  31      35      39      43      47      48
         53      63      64      69      70      71      72
SPCADD   2       1       3
SPC1     3       456     1       THRU    72
ENDDATA 6a7d6a3b
