SOL 101
CEND
DISP(PLOT,PRINT) = ALL
SPC = 10001
SUBCASE 10
  SUBTITLE = PLOAD
  LOAD = 10000
SUBCASE 12
  SUBTITLE = PLOAD
  LOAD = 10002
SUBCASE 14
  SUBTITLE = PLOAD4
  LOAD = 10004
BEGIN BULK
GRID,1,,0.,0.,0.
GRID,2,,1.,0.,0.
GRID,3,,2.,0.,0.
GRID,4,,3.,0.,0.
GRID,5,,0.,1.,0.
GRID,6,,1.,1.,0.
GRID,7,,2.,1.,0.
GRID,8,,3.,1.,0.
$
CTRIA3,1,10,1,6,5
CTRIA3,2,10,1,2,6
CTRIA3,3,10,2,7,6
CTRIA3,4,10,2,3,7
CTRIA3,5,10,3,8,7
CTRIA3,6,10,3,4,8
PSHELL,10,100,0.1
MAT1,100,3.0e7,,0.3
SPC1,10001,123456,1,5
$
PLOAD,10000,2.0,1,6,5
PLOAD,10000,2.0,1,2,6
$
PLOAD,10000,1.0,2,7,6
PLOAD,10000,1.0,2,3,7
$
PLOAD2,10002,2.0,1,2
PLOAD2,10002,1.0,3,4
$
PLOAD4,10004,1,2.0
PLOAD4,10004,2,2.0
$
PLOAD4,10004,3,1.0
PLOAD4,10004,4,1.0
$
$ 5---6---7---8
$ | / | / | / |
$ 1---2---3---4
$
$ A = 1.0
$ p1=1.0; p2=2.0
$ Fe1 = Fe2 = p2*A = 2.0*0.5 = 1.0 -> Fe1_nodes = 0.3333
$ Fe3 = Fe4 = p1*A = 1.0*0.5 = 0.5 -> Fe1_nodes = 0.1666
$ Fe5 = Fe6 = p0*A = 0.0*0.5 = 0.0 -> Fe1_nodes = 0.0
$
$ F1 = F5 = 0.3333
$ F6 = 0.333 + 0.333 + 0.116
$ F3 = F7 = 1/4 = 0.25
$ F4 = F8 = 0.0
ENDDATA
