SOL 101
CEND
SUBCASE 1
  DISP(PLOT,PRINT) = ALL
  SPC = 10001
  LOAD = 10000
BEGIN BULK
GRID,1,,0.,0.,0.
GRID,2,,1.,0.,0.
GRID,3,,2.,0.,0.
GRID,4,,3.,0.,0.
GRID,5,,0.,1.,0.
GRID,6,,1.,1.,0.
GRID,7,,2.,1.,0.
GRID,8,,3.,1.,0.
$
CQUAD4,1,10,1,2,6,5
CQUAD4,2,10,2,3,7,6
CQUAD4,3,10,3,4,8,7
PSHELL,10,100,0.1
MAT1,100,3.0e7,,0.3
PLOAD2,10000,2.0,1
PLOAD2,10000,1.0,2
SPC1,10001,123456,1,5
$
$ 5---6---7---8
$ |   |   |   |
$ 1---2---3---4
$
$ A = 1.0
$ p1=1.0; p2=2.0
$ Fe1 = p2*A = 2.0 -> Fe1_nodes = 2.0/4 = 0.50
$ Fe2 = p1*A = 1.0 -> Fe1_nodes = 1.0/4 = 0.25
$ Fe3 = p0*A = 0.0 -> Fe1_nodes = 0.0/4 = 0.00
$
$ F1 = F5 = 2.0/4.0 = 0.5
$ F2 = F6 = 0.5 + 1/4 = 0.75
$ F3 = F7 = 1/4 = 0.25
$ F4 = F8 = 0.0
ENDDATA
