SOL SESTATIC
CEND
  TITLE = STATIC
  ECHO = NONE
  DISPLACEMENT(PLOT) = ALL
  STRESS(PLOT) = ALL
  SPC = 1
SUBCASE 1
  LOAD = 1
BEGIN BULK
PARAM,POST,-1
PARAM,OGEOM,NO
PARAM,AUTOSPC,YES
PARAM,GRDPNT,0
PARAM,WTMASS,.00259
FORCE          1       3       0      1.    100.    200.    300.
SPC1           1  123456       1
SPC1           1  123456       2
PCOMP          1      0.      0.                                        +       
+              1      .1      0.     YES      10      .5      0.     YES+       
+              1      .1      0.     YES
MAT8           1    1.+7    1.+7      .33840000.3840000.3840000.      .1+       
+          2.4-5   2.4-5      0.                                        +       
+                               
MAT8          10      1.      1.      0.      1.  85000.   2300.      .2+       
+           5.-5    5.-5      0.                                        +       
+                               
GRID           1       0      0.      0.      0.       0
GRID           2       0      1.      0.      0.       0
GRID           3       0      1.      1.      0.       0
GRID           4       0      0.      1.      0.       0
$ PCOMP test
CQUAD4         1       1       1       2       3       4      0.
CTRIA3         2       1       1       2       3

$ PSHELL, NSM = 0.0
PSHELL         2       1    .125       1               1              0.
CQUAD4         3       2       1       2       3       4      0.
CTRIA3         4       2       1       2       3

$ PSHELL, NSM = 1.0
PSHELL         3       1    .125       1               1              1.
CQUAD4         5       3       1       2       3       4      0.
CTRIA3         6       3       1       2       3

ENDDATA
