INIT MASTER(S)
NASTRAN SYSTEM(319)=1
ID flat,Femap
SOL SESTATIC
TIME 10000
CEND
  TITLE = MSC/MD Nastran Static Analysis Set
  ECHO = NONE
  FORCE(PLOT,PRINT) = ALL
  STRESS(PLOT,PRINT) = ALL
  STRAIN(PLOT,PRINT,FIBER) = ALL
  SPC = 1
SUBCASE 1
  LOAD = 1
SUBCASE 2
  LOAD = 2
SUBCASE 3
  LOAD = 3
BEGIN BULK
PARAM,OMID,YES
$
PARAM,POST,-1
PARAM,OGEOM,NO
PARAM,AUTOSPC,YES
PARAM,K6ROT,100.
PARAM,GRDPNT,0
CORD2C         1       0      0.      0.      0.      0.      0.      1.+FEMAPC1
+FEMAPC1      1.      0.      1.        
CORD2S         2       0      0.      0.      0.      0.      0.      1.+FEMAPC2
+FEMAPC2      1.      0.      1.        
$ Femap with NX Nastran Load Set 1 : Untitled
FORCE          1      10       0      1.16.66667      0.      0.
FORCE          1      11       0      1.33.33333      0.      0.
FORCE          1      12       0      1.33.33333      0.      0.
FORCE          1      13       0      1.16.66667      0.      0.
$ Femap with NX Nastran Load Set 2 : Untitled
FORCE          2      25       0      1.      0.      0.     10.
FORCE          2      26       0      1.      0.      0.     10.
FORCE          2      27       0      1.      0.      0.     10.
FORCE          2      28       0      1.      0.      0.     10.
FORCE          2      29       0      1.      0.      0.     10.
FORCE          2      30       0      1.      0.      0.     10.
FORCE          2      31       0      1.      0.      0.     10.
FORCE          2      32       0      1.      0.      0.     10.
FORCE          2      33       0      1.      0.      0.     10.
FORCE          2      34       0      1.      0.      0.     10.
FORCE          2      35       0      1.      0.      0.     10.
FORCE          2      36       0      1.      0.      0.     10.
FORCE          2      37       0      1.      0.      0.     10.
FORCE          2      38       0      1.      0.      0.     10.
FORCE          2      39       0      1.      0.      0.     10.
FORCE          2      40       0      1.      0.      0.     10.
$ Femap with NX Nastran Load Set 3 : combined
FORCE          3      25       0      1.      0.      0.     10.
FORCE          3      26       0      1.      0.      0.     10.
FORCE          3      27       0      1.      0.      0.     10.
FORCE          3      28       0      1.      0.      0.     10.
FORCE          3      29       0      1.      0.      0.     10.
FORCE          3      30       0      1.      0.      0.     10.
FORCE          3      31       0      1.      0.      0.     10.
FORCE          3      32       0      1.      0.      0.     10.
FORCE          3      33       0      1.      0.      0.     10.
FORCE          3      34       0      1.      0.      0.     10.
FORCE          3      35       0      1.      0.      0.     10.
FORCE          3      36       0      1.      0.      0.     10.
FORCE          3      37       0      1.      0.      0.     10.
FORCE          3      38       0      1.      0.      0.     10.
FORCE          3      39       0      1.      0.      0.     10.
FORCE          3      40       0      1.      0.      0.     10.
FORCE          3      10       0      1.16.66667      0.      0.
FORCE          3      11       0      1.33.33333      0.      0.
FORCE          3      12       0      1.33.33333      0.      0.
FORCE          3      13       0      1.16.66667      0.      0.
$ Femap with NX Nastran Constraint Set 1 : Untitled
SPC1           1     123       1
SPC1           1       3       2
SPC1           1       3       3
SPC1           1       3       4
SPC1           1       3       5
SPC1           1       3       6
SPC1           1       3       7
SPC1           1       3       8
SPC1           1       3       9
SPC1           1       3      10
SPC1           1       3      11
SPC1           1       3      12
SPC1           1       3      13
SPC1           1       3      14
SPC1           1       3      15
SPC1           1       3      16
SPC1           1       3      17
SPC1           1       3      18
SPC1           1       3      19
SPC1           1       3      20
$ ... 8 like lines cut
$ Femap with NX Nastran Property 1 : Metallic Plate
PSHELL         1       1      1.       1               1              0.
$ Femap with NX Nastran Material 1 : Aluminum
MAT1           1  71000.             .33      0.      0.      0.        
GRID           1       0      0.      0.      0.       0
GRID           2       0.3333333      0.      0.       0
GRID           3       0.6666667      0.      0.       0
GRID           4       0      1.      0.      0.       0
GRID           5       01.333333      0.      0.       0
GRID           6       01.666667      0.      0.       0
GRID           7       0      2.      0.      0.       0
GRID           8       02.333333      0.      0.       0
GRID           9       02.666667      0.      0.       0
GRID          10       0      3.      0.      0.       0
GRID          11       0      3..3333333      0.       0
GRID          12       0      3..6666667      0.       0
GRID          13       0      3.      1.      0.       0
GRID          14       02.666667      1.      0.       0
GRID          15       02.333333      1.      0.       0
GRID          16       0      2.      1.      0.       0
GRID          17       01.666667      1.      0.       0
GRID          18       01.333333      1.      0.       0
GRID          19       0      1.      1.      0.       0
GRID          20       0.6666667      1.      0.       0
$ ... 43 like lines cut
CQUAD4         1       1       1       2      25      24139.1066        
CQUAD8         2       1       2       3      26      25      41      43+       
+             55      42                                139.1066        
CQUADR         3       1       5       6      28      27139.1066        
CQUAD4         4       1       7       8      30      29139.1066        
CQUAD4         5       1       8       9      31      30139.1066        
CQUAD4         6       1       9      10      11      31139.1066        
CQUAD4         7       1      24      25      32      23139.1066        
CQUAD8         8       1      25      26      33      32      55      57+       
+             61      56                                139.1066        
CQUADR         9       1      27      28      35      34139.1066        
CQUAD4        10       1      29      30      37      36139.1066        
CQUAD4        11       1      30      31      38      37139.1066        
CQUAD4        12       1      31      11      12      38139.1066        
CQUAD4        13       1      23      32      21      22139.1066        
CQUAD8        14       1      32      33      20      21      61      53+       
+             52      54                                139.1066        
CQUADR        15       1      34      35      17      18139.1066        
CQUAD4        16       1      36      37      15      16139.1066        
CQUAD4        17       1      37      38      14      15139.1066        
CQUAD4        18       1      38      12      13      14139.1066        
CTRIA6        19       1      34      19      18      50      48      49+       
+       -4.10661                                
CTRIA6        20       1      27      39      40      59      63      60+       
+       62.68909                                
CTRIA3        21       1      40      26      33 71.8539                
CTRIA6        22       1      39       5       4      47      44      45+       
+       -170.075                                
CTRIA3        23       1      19      40      33130.8934                
CTRIA6        24       1      40      19      34      51      50      62+       
+       -49.1066                                
CTRIA3        25       1      19      33      2085.89339                
CTRIA3        26       1      39       3      2671.86203                
CTRIA6        27       1      34      27      40      58      60      62+       
+       130.8934                                
CTRIA6        28       1       5      39      27      47      59      46+       
+       9.924762                                
CTRIA3        29       1       3      39       4-108.138                
CTRIA3        30       1      26      40      39-108.146                
CTRIAR        31       1      35      16      36-94.1066                
CTRIAR        32       1      29      35      36-4.10661                
CTRIAR        33       1      28       7       6175.8934                
CTRIAR        34       1      35      29      28175.8934                
CTRIAR        35       1      16      35      1785.89339                
CTRIAR        36       1       7      28      29-4.10661                
ENDDATA
