NASTRAN SYSTEM(442)=-1,PARALLEL=8,SYSTEM(319)=1
ID op2,FEMAP
SOL SESTATIC
CEND
  TITLE = Simcenter Nastran Static Analysis Set
  ECHO = NONE
  DISPLACEMENT(PRINT) = ALL
  SPCFORCE(PRINT) = ALL
  OLOAD(PRINT) = ALL
  FORCE(PRINT,CORNER) = ALL
  STRESS(PRINT,CORNER) = ALL
  BCRESULTS(TRACTION,FORCE,SEPDIS,PRINT) = ALL
  SPC = 1
  BCSET = 108
  LOAD = 1
BEGIN BULK
$ ***************************************************************************
$   Written by : Femap
$   Version    : 2020.1.1
$   Translator : Simcenter Nastran
$   From Model : D:\ISTA_abstract_sumission_031721\op2_contact_model.modfem
$   Date       : Fri Mar 12 15:14:33 2021
$   Output To  : C:\Users\bkirking\_LargeFilesLocal\Latest_FEMAP_run\
$ ***************************************************************************
$
PARAM,PRGPST,YES
PARAM,POST,-1
PARAM,OGEOM,NO
PARAM,AUTOSPC,YES
PARAM,K6ROT,100.
PARAM,GRDPNT,0
CORD2C         1       0      0.      0.      0.      0.      0.      1.+FEMAPC1
+FEMAPC1      1.      0.      1.        
CORD2S         2       0      0.      0.      0.      0.      0.      1.+FEMAPC2
+FEMAPC2      1.      0.      1.        
$ Femap Load Set 1 : Untitled
FORCE          1      55       0      1.    500.      0.      0.
FORCE          1      56       0      1.    500.      0.      0.
FORCE          1      57       0      1.    500.      0.      0.
FORCE          1      58       0      1.    500.      0.      0.
FORCE          1     145       0      1.    500.      0.      0.
FORCE          1     146       0      1.    500.      0.      0.
FORCE          1     147       0      1.    500.      0.      0.
FORCE          1     148       0      1.    500.      0.      0.
FORCE          1     185       0      1.    500.      0.      0.
FORCE          1     186       0      1.    500.      0.      0.
FORCE          1     187       0      1.    500.      0.      0.
FORCE          1     188       0      1.    500.      0.      0.
FORCE          1     189       0      1.    500.      0.      0.
FORCE          1     190       0      1.    500.      0.      0.
FORCE          1     191       0      1.    500.      0.      0.
FORCE          1     192       0      1.    500.      0.      0.
FORCE          1     193       0      1.    500.      0.      0.
FORCE          1     194       0      1.    500.      0.      0.
FORCE          1     195       0      1.    500.      0.      0.
FORCE          1     196       0      1.    500.      0.      0.
$ ... 4 like lines cut
$ Femap Constraint Set 1 : Untitled
SPC1           1  123456       1
SPC1           1  123456       2
SPC1           1  123456       3
SPC1           1  123456       4
SPC1           1  123456       5
SPC1           1  123456       6
SPC1           1  123456       7
SPC1           1  123456       8
SPC1           1  123456       9
SPC1           1  123456      10
SPC1           1  123456      11
SPC1           1  123456      12
SPC1           1  123456      13
SPC1           1  123456      14
SPC1           1  123456      15
SPC1           1  123456      16
SPC1           1  123456      17
SPC1           1  123456      18
SPC1           1  123456      19
SPC1           1  123456      20
$ ... 88 like lines cut
$ Femap Property 1 : SOLID Property
PSOLID         1       1       0        
$ Femap Property 2 : Copy of SOLID Property
PSOLID         2       1       0        
$ Femap Property 3 : Copy of Copy of SOLID Property
PSOLID         3       1       0        
$ Femap Material 1 : Stainless Typ (MPa)
MAT1           1 196000.             .27      0.      0.      0.        
GRID           1       0     -5.     -5.     20.       0
GRID           2       0     -3.     -5.     20.       0
GRID           3       0     -1.     -5.     20.       0
GRID           4       0      1.     -5.     20.       0
GRID           5       0      3.     -5.     20.       0
GRID           6       0      5.     -5.     20.       0
GRID           7       0      5.     -3.     20.       0
GRID           8       0      5.     -1.     20.       0
GRID           9       0      5.      1.     20.       0
GRID          10       0      5.      3.     20.       0
GRID          11       0      5.      5.     20.       0
GRID          12       0      3.      5.     20.       0
GRID          13       0      1.      5.     20.       0
GRID          14       0     -1.      5.     20.       0
GRID          15       0     -3.      5.     20.       0
GRID          16       0     -5.      5.     20.       0
GRID          17       0     -5.      3.     20.       0
GRID          18       0     -5.      1.     20.       0
GRID          19       0     -5.     -1.     20.       0
GRID          20       0     -5.     -3.     20.       0
$ ... 1060 like lines cut
CHEXA          1       1     721     740     741     722     766     831+       
+            953     810                                                        
CHEXA          2       1     722     741     742     723     810     953+       
+            954     802                                                        
CHEXA          3       1     723     742     743     724     802     954+       
+            955     794                                                        
CHEXA          4       1     724     743     744     725     794     955+       
+            956     786                                                        
CHEXA          5       1     725     744     727     726     786     956+       
+            949     765                                                        
CHEXA          6       1     740     739     745     741     831     839+       
+            957     953                                                        
CHEXA          7       1     741     745     746     742     953     957+       
+            958     954                                                        
CHEXA          8       1     742     746     747     743     954     958+       
+            959     955                                                        
CHEXA          9       1     743     747     748     744     955     959+       
+            960     956                                                        
CHEXA         10       1     744     748     728     727     956     960+       
+            950     949                                                        
CHEXA         11       1     739     738     749     745     839     847+       
+            961     957                                                        
CHEXA         12       1     745     749     750     746     957     961+       
+            962     958                                                        
CHEXA         13       1     746     750     751     747     958     962+       
+            963     959                                                        
CHEXA         14       1     747     751     752     748     959     963+       
+            964     960                                                        
CHEXA         15       1     748     752     729     728     960     964+       
+            951     950                                                        
CHEXA         16       1     738     737     753     749     847     855+       
+            965     961                                                        
CHEXA         17       1     749     753     754     750     961     965+       
+            966     962                                                        
CHEXA         18       1     750     754     755     751     962     966+       
+            967     963                                                        
CHEXA         19       1     751     755     756     752     963     967+       
+            968     964                                                        
CHEXA         20       1     752     756     730     729     964     968+       
+            952     951                                                        
$ ... 1310 like lines cut
$ Femap Region 1 : left block right side
BCRPARA        1              0.                
BSURFS         1                             205     921     904     757+       
+            210     922     903     904     215     923     902     903+       
+            225     863     864     901     220     924     901     902+       
+            180     925     921     758     185     926     922     921+       
+            190     927     923     922     200     862     863     924+       
+            195     928     924     923     155     929     925     759+       
+            160     930     926     925     165     931     927     926+       
+            175     861     862     928     170     932     928     927+       
+            130     933     929     760     135     934     930     929+       
+            140     935     931     930     150     860     861     932+       
+            145     936     932     931     105     937     933     761+       
+            110     938     934     933     115     939     935     934+       
+            125     859     860     936     120     940     936     935+       
+             80     941     937     762      85     942     938     937+       
+             90     943     939     938     100     858     859     940+       
+             95     944     940     939      55     945     941     763+       
+             60     946     942     941      65     947     943     942+       
+             75     857     858     944      70     948     944     943+       
+              5     727     949     765      30     949     945     764+       
+             10     728     950     949      35     950     946     945+       
+             15     729     951     950      40     951     947     946+       
+             25     731     856     952      50     856     857     948+       
+             20     730     952     951      45     952     948     947
$ Femap Region 2 : middle block left side
BCRPARA        2              0.                
BSURFS         2                             431      53      54     103+       
+            406      52      53     104     381      51      52     105+       
+            356      50      51     106     331      49      50     107+       
+            306      48      49     108     281      47      48     109+       
+            231       1      46     111     256      46      47     110+       
+            436     104     103     102     411     105     104     112+       
+            386     106     105     113     361     107     106     114+       
+            336     108     107     115     311     109     108     116+       
+            286     110     109     117     236      20     111     119+       
+            261     111     110     118     441     112     102     101+       
+            416     113     112     120     391     114     113     121+       
+            366     115     114     122     341     116     115     123+       
+            316     117     116     124     291     118     117     125+       
+            241      19     119     127     266     119     118     126+       
+            451     128     100      99     446     120     101     100+       
+            426     129     128      98     421     121     120     128+       
+            401     130     129      97     396     122     121     129+       
+            376     131     130      96     371     123     122     130+       
+            351     132     131      95     346     124     123     131+       
+            326     133     132      94     321     125     124     132+       
+            301     134     133      93     296     126     125     133+       
+            251      17     135      91     246      18     127     135+       
+            276     135     134      92     271     127     126     134
$ Femap Region 3 : middle block right side
BCRPARA        3              0.                
BSURFS         3                             435     201     184      37+       
+            440     202     183     184     445     203     182     183+       
+            455     143     144     181     450     204     181     182+       
+            410     205     201      38     415     206     202     201+       
+            420     207     203     202     430     142     143     204+       
+            425     208     204     203     385     209     205      39+       
+            390     210     206     205     395     211     207     206+       
+            405     141     142     208     400     212     208     207+       
+            360     213     209      40     365     214     210     209+       
+            370     215     211     210     380     140     141     212+       
+            375     216     212     211     335     217     213      41+       
+            340     218     214     213     345     219     215     214+       
+            355     139     140     216     350     220     216     215+       
+            310     221     217      42     315     222     218     217+       
+            320     223     219     218     330     138     139     220+       
+            325     224     220     219     285     225     221      43+       
+            290     226     222     221     295     227     223     222+       
+            305     137     138     224     300     228     224     223+       
+            235       7     229      45     260     229     225      44+       
+            240       8     230     229     265     230     226     225+       
+            245       9     231     230     270     231     227     226+       
+            255      11     136     232     280     136     137     228+       
+            250      10     232     231     275     232     228     227
$ Femap Region 4 : right block left side
BCRPARA        4              0.                
BSURFS         4                             656     413     414     463+       
+            631     412     413     464     606     411     412     465+       
+            581     410     411     466     556     409     410     467+       
+            531     408     409     468     506     407     408     469+       
+            456     361     406     471     481     406     407     470+       
+            661     464     463     462     636     465     464     472+       
+            611     466     465     473     586     467     466     474+       
+            561     468     467     475     536     469     468     476+       
+            511     470     469     477     461     380     471     479+       
+            486     471     470     478     666     472     462     461+       
+            641     473     472     480     616     474     473     481+       
+            591     475     474     482     566     476     475     483+       
+            541     477     476     484     516     478     477     485+       
+            466     379     479     487     491     479     478     486+       
+            676     488     460     459     671     480     461     460+       
+            651     489     488     458     646     481     480     488+       
+            626     490     489     457     621     482     481     489+       
+            601     491     490     456     596     483     482     490+       
+            576     492     491     455     571     484     483     491+       
+            551     493     492     454     546     485     484     492+       
+            526     494     493     453     521     486     485     493+       
+            476     377     495     451     471     378     487     495+       
+            501     495     494     452     496     487     486     494
$ Femap Connection Property 1 : Untitled
BCTPARM      108  PENTYP       1 INIPENE       0
$ Femap Connector 108 : left to middle
BCTSET       108       2       1                     .25                +       
+                      3       4                     .25                
ENDDATA 21a5cc7d
