ASSIGN DATABASE CAPS PASS NEW
SOLUTION
TITLE = VORTECS_0
OPTIMIZE STRATEGY=((FSD, 0),MP), MAXITER=5, NRFAC=3.0, CNVRGLIM=1.0E-06,
EPS=  -0.1, MOVLIM=1.50, ALPHA=0.60
PRINT AIRD(ITER=LAST)=ALL,DCON(ITER=LAST)=ALL,GDES=ALL, TRIM
PRINT DISP(ITER=LAST)=ALL,GPWG=ALL,TPRE(ITER=LAST)=ALL,STRESS(ITER=LAST)=ALL
 BOUNDARY SUPPORT = 2 , SPC = 5 , MPC = 85 
    LABEL = A:3g_cruise
    SAERO SYMMETRIC (TRIM=1), CONST(STRESS = 313)
 BOUNDARY SUPPORT = 2 , SPC = 6 , MPC = 85 
    LABEL = B:-2g_cruise
    SAERO SYMMETRIC (TRIM=2), CONST(STRESS = 314)
 BOUNDARY SUPPORT = 2 , SPC = 7 , MPC = 85 
    LABEL = C:1g_cruise
    SAERO SYMMETRIC (TRIM=3), CONST(STRESS = 315)
 BOUNDARY SUPPORT = 1 , SPC = 8 , MPC = 85 
    LABEL = D:roll_cruise
    SAERO ANTISYMMETRIC (TRIM=4), CONST(STRESS = 316)
END
$
BEGIN BULK(SORT)
$---1---|---2---|---3---|---4---|---5---|---6---|---7---|---8---|---9---|---10--|
AEROS   ,       ,       ,719.244,2588.71,719999.,      1
$---1---|---2---|---3---|---4---|---5---|---6---|---7---|---8---|---9---|---10--|
$TRIM   TRIMID  MACH    QDP     TRMTYP  EFFID   VO                      CONT
TRIM    ,      1,    0.6,0.68553,       ,       ,6970.15,       ,       ,+0      
+0      ,     NZ,1158.12, THKCAM,     1.,  ALPHA,   FREE
$
$ Constraint(s)
SPC1    ,      5,  12456,      1
$
$ Design constraint(s)
DCONVMP ,    313, 57500., 57500., 28750., PSHELL,       ,    229
DCONVMP ,    313, 57500., 57500., 28750., PSHELL,       ,    255
DCONVMP ,    313, 57500., 57500., 28750., PSHELL,       ,    258
DCONVMP ,    313, 57500., 57500., 28750., PSHELL,       ,    261
DCONVMP ,    313, 57500., 57500., 28750., PSHELL,       ,    264
DCONVMP ,    313, 57500., 57500., 28750., PSHELL,       ,    267
DCONVMP ,    313, 57500., 57500., 28750., PSHELL,       ,    270
DCONVMP ,    313, 57500., 57500., 28750., PSHELL,       ,    273
DCONVMP ,    313, 57500., 57500., 28750., PSHELL,       ,    276
DCONVMP ,    313, 57500., 57500., 28750., PSHELL,       ,    279
DCONVMP ,    313, 57500., 57500., 28750., PSHELL,       ,    282
DCONVMP ,    313, 57500., 57500., 28750., PSHELL,       ,    231
DCONVMP ,    313, 57500., 57500., 28750., PSHELL,       ,    285
DCONVMP ,    313, 57500., 57500., 28750., PSHELL,       ,    288
DCONVMP ,    313, 57500., 57500., 28750., PSHELL,       ,    291
DCONVMP ,    313, 57500., 57500., 28750., PSHELL,       ,    294
DCONVMP ,    313, 57500., 57500., 28750., PSHELL,       ,    297
DCONVMP ,    313, 57500., 57500., 28750., PSHELL,       ,    300
DCONVMP ,    313, 57500., 57500., 28750., PSHELL,       ,    303
DCONVMP ,    313, 57500., 57500., 28750., PSHELL,       ,    306
$ ... 292 like lines cut
$---1---|---2---|---3---|---4---|---5---|---6---|---7---|---8---|---9---|---10--|
$TRIM   TRIMID  MACH    QDP     TRMTYP  EFFID   VO                      CONT
TRIM    ,      2,    0.6,0.68553,       ,       ,6970.15,       ,       ,+0      
+0      ,     NZ,-772.08, THKCAM,     1.,  ALPHA,   FREE
$
$ Constraint(s)
SPC1    ,      6,  12456,      1
$
$ Design constraint(s)
DCONVMP ,    314, 57500., 57500., 28750., PSHELL,       ,    229
DCONVMP ,    314, 57500., 57500., 28750., PSHELL,       ,    255
DCONVMP ,    314, 57500., 57500., 28750., PSHELL,       ,    258
DCONVMP ,    314, 57500., 57500., 28750., PSHELL,       ,    261
DCONVMP ,    314, 57500., 57500., 28750., PSHELL,       ,    264
DCONVMP ,    314, 57500., 57500., 28750., PSHELL,       ,    267
DCONVMP ,    314, 57500., 57500., 28750., PSHELL,       ,    270
DCONVMP ,    314, 57500., 57500., 28750., PSHELL,       ,    273
DCONVMP ,    314, 57500., 57500., 28750., PSHELL,       ,    276
DCONVMP ,    314, 57500., 57500., 28750., PSHELL,       ,    279
DCONVMP ,    314, 57500., 57500., 28750., PSHELL,       ,    282
DCONVMP ,    314, 57500., 57500., 28750., PSHELL,       ,    231
DCONVMP ,    314, 57500., 57500., 28750., PSHELL,       ,    285
DCONVMP ,    314, 57500., 57500., 28750., PSHELL,       ,    288
DCONVMP ,    314, 57500., 57500., 28750., PSHELL,       ,    291
DCONVMP ,    314, 57500., 57500., 28750., PSHELL,       ,    294
DCONVMP ,    314, 57500., 57500., 28750., PSHELL,       ,    297
DCONVMP ,    314, 57500., 57500., 28750., PSHELL,       ,    300
DCONVMP ,    314, 57500., 57500., 28750., PSHELL,       ,    303
DCONVMP ,    314, 57500., 57500., 28750., PSHELL,       ,    306
$ ... 292 like lines cut
$---1---|---2---|---3---|---4---|---5---|---6---|---7---|---8---|---9---|---10--|
$TRIM   TRIMID  MACH    QDP     TRMTYP  EFFID   VO                      CONT
TRIM    ,      3,    0.6,0.68553,       ,       ,6970.15,       ,       ,+0      
+0      ,     NZ, 386.04, THKCAM,     1.,  ALPHA,   FREE
$
$ Constraint(s)
SPC1    ,      7,  12456,      1
$
$ Design constraint(s)
DCONVMP ,    315, 57500., 57500., 28750., PSHELL,       ,    229
DCONVMP ,    315, 57500., 57500., 28750., PSHELL,       ,    255
DCONVMP ,    315, 57500., 57500., 28750., PSHELL,       ,    258
DCONVMP ,    315, 57500., 57500., 28750., PSHELL,       ,    261
DCONVMP ,    315, 57500., 57500., 28750., PSHELL,       ,    264
DCONVMP ,    315, 57500., 57500., 28750., PSHELL,       ,    267
DCONVMP ,    315, 57500., 57500., 28750., PSHELL,       ,    270
DCONVMP ,    315, 57500., 57500., 28750., PSHELL,       ,    273
DCONVMP ,    315, 57500., 57500., 28750., PSHELL,       ,    276
DCONVMP ,    315, 57500., 57500., 28750., PSHELL,       ,    279
DCONVMP ,    315, 57500., 57500., 28750., PSHELL,       ,    282
DCONVMP ,    315, 57500., 57500., 28750., PSHELL,       ,    231
DCONVMP ,    315, 57500., 57500., 28750., PSHELL,       ,    285
DCONVMP ,    315, 57500., 57500., 28750., PSHELL,       ,    288
DCONVMP ,    315, 57500., 57500., 28750., PSHELL,       ,    291
DCONVMP ,    315, 57500., 57500., 28750., PSHELL,       ,    294
DCONVMP ,    315, 57500., 57500., 28750., PSHELL,       ,    297
DCONVMP ,    315, 57500., 57500., 28750., PSHELL,       ,    300
DCONVMP ,    315, 57500., 57500., 28750., PSHELL,       ,    303
DCONVMP ,    315, 57500., 57500., 28750., PSHELL,       ,    306
$ ... 292 like lines cut
$---1---|---2---|---3---|---4---|---5---|---6---|---7---|---8---|---9---|---10--|
$TRIM   TRIMID  MACH    QDP     TRMTYP  EFFID   VO                      CONT
TRIM    ,      4,    0.6,0.68553,       ,       ,6970.15,       ,       ,+0      
+0      ,  PRATE,0.17453, PACCEL,     0.,  ailRA,   FREE
$
$ Constraint(s)
SPC1    ,      8,  12356,      1
$
$ Design constraint(s)
DCONVMP ,    316, 57500., 57500., 28750., PSHELL,       ,    229
DCONVMP ,    316, 57500., 57500., 28750., PSHELL,       ,    255
DCONVMP ,    316, 57500., 57500., 28750., PSHELL,       ,    258
DCONVMP ,    316, 57500., 57500., 28750., PSHELL,       ,    261
DCONVMP ,    316, 57500., 57500., 28750., PSHELL,       ,    264
DCONVMP ,    316, 57500., 57500., 28750., PSHELL,       ,    267
DCONVMP ,    316, 57500., 57500., 28750., PSHELL,       ,    270
DCONVMP ,    316, 57500., 57500., 28750., PSHELL,       ,    273
DCONVMP ,    316, 57500., 57500., 28750., PSHELL,       ,    276
DCONVMP ,    316, 57500., 57500., 28750., PSHELL,       ,    279
DCONVMP ,    316, 57500., 57500., 28750., PSHELL,       ,    282
DCONVMP ,    316, 57500., 57500., 28750., PSHELL,       ,    231
DCONVMP ,    316, 57500., 57500., 28750., PSHELL,       ,    285
DCONVMP ,    316, 57500., 57500., 28750., PSHELL,       ,    288
DCONVMP ,    316, 57500., 57500., 28750., PSHELL,       ,    291
DCONVMP ,    316, 57500., 57500., 28750., PSHELL,       ,    294
DCONVMP ,    316, 57500., 57500., 28750., PSHELL,       ,    297
DCONVMP ,    316, 57500., 57500., 28750., PSHELL,       ,    300
DCONVMP ,    316, 57500., 57500., 28750., PSHELL,       ,    303
DCONVMP ,    316, 57500., 57500., 28750., PSHELL,       ,    306
$ ... 292 like lines cut
$
$ Support(s)
SUPORT  ,      1,      1,      4
SUPORT  ,      2,      1,      3
SUPORT  ,      3,      1,     35
$
$ Material(s)
MAT8    ,      1,1.04E+7,1.04E+7,   0.33, 3.9E+6, 3.9E+6, 3.9E+6,2.64E-4,+0      
+0      ,     0.,     0.,     0.,       ,       ,       ,       ,       ,+1      
+1      ,     0.
$
$ Property(ies)
PSHELL  ,    229,      1,     1.,      1,   100.,      1,0.83333
PSHELL  ,    255,      1,     1.,      1,   100.,      1,0.83333
PSHELL  ,    258,      1,     1.,      1,   100.,      1,0.83333
PSHELL  ,    261,      1,     1.,      1,   100.,      1,0.83333
PSHELL  ,    264,      1,     1.,      1,   100.,      1,0.83333
PSHELL  ,    267,      1,     1.,      1,   100.,      1,0.83333
PSHELL  ,    270,      1,     1.,      1,   100.,      1,0.83333
PSHELL  ,    273,      1,     1.,      1,   100.,      1,0.83333
PSHELL  ,    276,      1,     1.,      1,   100.,      1,0.83333
PSHELL  ,    279,      1,     1.,      1,   100.,      1,0.83333
PSHELL  ,    282,      1,     1.,      1,   100.,      1,0.83333
PSHELL  ,    231,      1,     1.,      1,   100.,      1,0.83333
PSHELL  ,    285,      1,     1.,      1,   100.,      1,0.83333
PSHELL  ,    288,      1,     1.,      1,   100.,      1,0.83333
PSHELL  ,    291,      1,     1.,      1,   100.,      1,0.83333
PSHELL  ,    294,      1,     1.,      1,   100.,      1,0.83333
PSHELL  ,    297,      1,     1.,      1,   100.,      1,0.83333
PSHELL  ,    300,      1,     1.,      1,   100.,      1,0.83333
PSHELL  ,    303,      1,     1.,      1,   100.,      1,0.83333
PSHELL  ,    306,      1,     1.,      1,   100.,      1,0.83333
$ ... 292 like lines cut
$
$ Design variable(s)
DESVARP ,      1,      1,  4.E-2,   0.75,    0.2,       ,       ,  rib_1
PLIST   ,      1, PSHELL,    229
DESVARP ,      2,      2,  4.E-2,   0.75,    0.2,       ,       , rib_10
PLIST   ,      2, PSHELL,    255
DESVARP ,      3,      3,  4.E-2,   0.75,    0.2,       ,       , rib_11
PLIST   ,      3, PSHELL,    258
DESVARP ,      4,      4,  4.E-2,   0.75,    0.2,       ,       , rib_12
PLIST   ,      4, PSHELL,    261
DESVARP ,      5,      5,  4.E-2,   0.75,    0.2,       ,       , rib_13
PLIST   ,      5, PSHELL,    264
DESVARP ,      6,      6,  4.E-2,   0.75,    0.2,       ,       , rib_14
PLIST   ,      6, PSHELL,    267
DESVARP ,      7,      7,  4.E-2,   0.75,    0.2,       ,       , rib_15
PLIST   ,      7, PSHELL,    270
DESVARP ,      8,      8,  4.E-2,   0.75,    0.2,       ,       , rib_16
PLIST   ,      8, PSHELL,    273
DESVARP ,      9,      9,  4.E-2,   0.75,    0.2,       ,       , rib_17
PLIST   ,      9, PSHELL,    276
DESVARP ,     10,     10,  4.E-2,   0.75,    0.2,       ,       , rib_18
PLIST   ,     10, PSHELL,    279
DESVARP ,     11,     11,  4.E-2,   0.75,    0.2,       ,       , rib_19
PLIST   ,     11, PSHELL,    282
DESVARP ,     12,     12,  4.E-2,   0.75,    0.2,       ,       ,  rib_2
PLIST   ,     12, PSHELL,    231
DESVARP ,     13,     13,  4.E-2,   0.75,    0.2,       ,       , rib_20
PLIST   ,     13, PSHELL,    285
DESVARP ,     14,     14,  4.E-2,   0.75,    0.2,       ,       , rib_21
PLIST   ,     14, PSHELL,    288
DESVARP ,     15,     15,  4.E-2,   0.75,    0.2,       ,       , rib_22
PLIST   ,     15, PSHELL,    291
DESVARP ,     16,     16,  4.E-2,   0.75,    0.2,       ,       , rib_23
PLIST   ,     16, PSHELL,    294
DESVARP ,     17,     17,  4.E-2,   0.75,    0.2,       ,       , rib_24
PLIST   ,     17, PSHELL,    297
DESVARP ,     18,     18,  4.E-2,   0.75,    0.2,       ,       , rib_25
PLIST   ,     18, PSHELL,    300
DESVARP ,     19,     19,  4.E-2,   0.75,    0.2,       ,       , rib_26
PLIST   ,     19, PSHELL,    303
DESVARP ,     20,     20,  4.E-2,   0.75,    0.2,       ,       , rib_27
PLIST   ,     20, PSHELL,    306
$ ... 38 like lines cut
DESVARP ,     40,     40,  4.E-2,   0.75,    0.2,       ,       ,  VAR40
PLIST   ,     40, PSHELL,    121
DESVARP ,     41,     41,  4.E-2,   0.75,    0.2,       ,       ,  VAR41
PLIST   ,     41, PSHELL,    137
DESVARP ,     42,     42,  4.E-2,   0.75,    0.2,       ,       ,  VAR42
PLIST   ,     42, PSHELL,    122
DESVARP ,     43,     43,  4.E-2,   0.75,    0.2,       ,       ,  VAR43
PLIST   ,     43, PSHELL,    138
DESVARP ,     44,     44,  4.E-2,   0.75,    0.2,       ,       ,  VAR44
PLIST   ,     44, PSHELL,    123
DESVARP ,     45,     45,  4.E-2,   0.75,    0.2,       ,       ,  VAR45
PLIST   ,     45, PSHELL,    139
DESVARP ,     46,     46,  4.E-2,   0.75,    0.2,       ,       ,  VAR46
PLIST   ,     46, PSHELL,    124
DESVARP ,     47,     47,  4.E-2,   0.75,    0.2,       ,       ,  VAR47
PLIST   ,     47, PSHELL,    140
DESVARP ,     48,     48,  4.E-2,   0.75,    0.2,       ,       ,  VAR48
PLIST   ,     48, PSHELL,    125
DESVARP ,     49,     49,  4.E-2,   0.75,    0.2,       ,       ,  VAR49
PLIST   ,     49, PSHELL,    141
DESVARP ,     50,     50,  4.E-2,   0.75,    0.2,       ,       ,  VAR50
PLIST   ,     50, PSHELL,    126
DESVARP ,     51,     51,  4.E-2,   0.75,    0.2,       ,       ,  VAR51
PLIST   ,     51, PSHELL,    142
DESVARP ,     52,     52,  4.E-2,   0.75,    0.2,       ,       ,  VAR52
PLIST   ,     52, PSHELL,    127
DESVARP ,     53,     53,  4.E-2,   0.75,    0.2,       ,       ,  VAR53
PLIST   ,     53, PSHELL,    143
DESVARP ,     54,     54,  4.E-2,   0.75,    0.2,       ,       ,  VAR54
PLIST   ,     54, PSHELL,    128
DESVARP ,     55,     55,  4.E-2,   0.75,    0.2,       ,       ,  VAR55
PLIST   ,     55, PSHELL,    144
DESVARP ,     56,     56,  4.E-2,   0.75,    0.2,       ,       ,  VAR56
PLIST   ,     56, PSHELL,    109
DESVARP ,     57,     57,  4.E-2,   0.75,    0.2,       ,       ,  VAR57
PLIST   ,     57, PSHELL,    110
DESVARP ,     58,     58,  4.E-2,   0.75,    0.2,       ,       ,  VAR58
PLIST   ,     58, PSHELL,    188
DESVARP ,     59,     59,  4.E-2,   0.75,    0.2,       ,       ,  VAR59
PLIST   ,     59, PSHELL,    187
DESVARP ,     60,     60,  4.E-2,   0.75,    0.2,       ,       ,skL_1_1
PLIST   ,     60, PSHELL,    112
DESVARP ,     61,     61,  4.E-2,   0.75,    0.2,       ,       ,skL_1_2
PLIST   ,     61, PSHELL,    111
DESVARP ,     62,     62,  4.E-2,   0.75,    0.2,       ,       ,  VAR62
PLIST   ,     62, PSHELL,    189
DESVARP ,     63,     63,  4.E-2,   0.75,    0.2,       ,       ,  VAR63
PLIST   ,     63, PSHELL,    210
DESVARP ,     64,     64,  4.E-2,   0.75,    0.2,       ,       ,  VAR64
PLIST   ,     64, PSHELL,    190
DESVARP ,     65,     65,  4.E-2,   0.75,    0.2,       ,       ,  VAR65
PLIST   ,     65, PSHELL,    211
DESVARP ,     66,     66,  4.E-2,   0.75,    0.2,       ,       ,  VAR66
PLIST   ,     66, PSHELL,    191
DESVARP ,     67,     67,  4.E-2,   0.75,    0.2,       ,       ,  VAR67
PLIST   ,     67, PSHELL,    212
DESVARP ,     68,     68,  4.E-2,   0.75,    0.2,       ,       ,  VAR68
PLIST   ,     68, PSHELL,    192
DESVARP ,     69,     69,  4.E-2,   0.75,    0.2,       ,       ,  VAR69
PLIST   ,     69, PSHELL,    213
DESVARP ,     70,     70,  4.E-2,   0.75,    0.2,       ,       ,  VAR70
PLIST   ,     70, PSHELL,    193
DESVARP ,     71,     71,  4.E-2,   0.75,    0.2,       ,       ,  VAR71
PLIST   ,     71, PSHELL,    214
DESVARP ,     72,     72,  4.E-2,   0.75,    0.2,       ,       ,  VAR72
PLIST   ,     72, PSHELL,    194
DESVARP ,     73,     73,  4.E-2,   0.75,    0.2,       ,       ,  VAR73
PLIST   ,     73, PSHELL,    215
DESVARP ,     74,     74,  4.E-2,   0.75,    0.2,       ,       ,  VAR74
PLIST   ,     74, PSHELL,    195
DESVARP ,     75,     75,  4.E-2,   0.75,    0.2,       ,       ,  VAR75
PLIST   ,     75, PSHELL,    216
DESVARP ,     76,     76,  4.E-2,   0.75,    0.2,       ,       ,  VAR76
PLIST   ,     76, PSHELL,    196
DESVARP ,     77,     77,  4.E-2,   0.75,    0.2,       ,       ,  VAR77
PLIST   ,     77, PSHELL,    217
DESVARP ,     78,     78,  4.E-2,   0.75,    0.2,       ,       ,  VAR78
PLIST   ,     78, PSHELL,    197
DESVARP ,     79,     79,  4.E-2,   0.75,    0.2,       ,       ,  VAR79
PLIST   ,     79, PSHELL,    218
DESVARP ,     80,     80,  4.E-2,   0.75,    0.2,       ,       ,  VAR80
PLIST   ,     80, PSHELL,    198
DESVARP ,     81,     81,  4.E-2,   0.75,    0.2,       ,       ,  VAR81
PLIST   ,     81, PSHELL,    219
DESVARP ,     82,     82,  4.E-2,   0.75,    0.2,       ,       ,skL_2_1
PLIST   ,     82, PSHELL,    113
DESVARP ,     83,     83,  4.E-2,   0.75,    0.2,       ,       ,skL_2_2
PLIST   ,     83, PSHELL,    129
DESVARP ,     84,     84,  4.E-2,   0.75,    0.2,       ,       ,  VAR84
PLIST   ,     84, PSHELL,    199
DESVARP ,     85,     85,  4.E-2,   0.75,    0.2,       ,       ,  VAR85
PLIST   ,     85, PSHELL,    220
DESVARP ,     86,     86,  4.E-2,   0.75,    0.2,       ,       ,  VAR86
PLIST   ,     86, PSHELL,    200
DESVARP ,     87,     87,  4.E-2,   0.75,    0.2,       ,       ,  VAR87
PLIST   ,     87, PSHELL,    221
DESVARP ,     88,     88,  4.E-2,   0.75,    0.2,       ,       ,  VAR88
PLIST   ,     88, PSHELL,    201
DESVARP ,     89,     89,  4.E-2,   0.75,    0.2,       ,       ,  VAR89
PLIST   ,     89, PSHELL,    222
DESVARP ,     90,     90,  4.E-2,   0.75,    0.2,       ,       ,  VAR90
PLIST   ,     90, PSHELL,    202
DESVARP ,     91,     91,  4.E-2,   0.75,    0.2,       ,       ,  VAR91
PLIST   ,     91, PSHELL,    223
DESVARP ,     92,     92,  4.E-2,   0.75,    0.2,       ,       ,  VAR92
PLIST   ,     92, PSHELL,    203
DESVARP ,     93,     93,  4.E-2,   0.75,    0.2,       ,       ,  VAR93
PLIST   ,     93, PSHELL,    224
DESVARP ,     94,     94,  4.E-2,   0.75,    0.2,       ,       ,  VAR94
PLIST   ,     94, PSHELL,    204
DESVARP ,     95,     95,  4.E-2,   0.75,    0.2,       ,       ,  VAR95
PLIST   ,     95, PSHELL,    225
DESVARP ,     96,     96,  4.E-2,   0.75,    0.2,       ,       ,  VAR96
PLIST   ,     96, PSHELL,    205
DESVARP ,     97,     97,  4.E-2,   0.75,    0.2,       ,       ,  VAR97
PLIST   ,     97, PSHELL,    226
DESVARP ,     98,     98,  4.E-2,   0.75,    0.2,       ,       ,  VAR98
PLIST   ,     98, PSHELL,    206
DESVARP ,     99,     99,  4.E-2,   0.75,    0.2,       ,       ,  VAR99
PLIST   ,     99, PSHELL,    227
DESVARP ,    100,    100,  4.E-2,   0.75,    0.2,       ,       , VAR100
PLIST   ,    100, PSHELL,    207
DESVARP ,    101,    101,  4.E-2,   0.75,    0.2,       ,       , VAR101
PLIST   ,    101, PSHELL,    228
DESVARP ,    102,    102,  4.E-2,   0.75,    0.2,       ,       , VAR102
PLIST   ,    102, PSHELL,    208
DESVARP ,    103,    103,  4.E-2,   0.75,    0.2,       ,       , VAR103
PLIST   ,    103, PSHELL,    209
DESVARP ,    104,    104,  4.E-2,   0.75,    0.2,       ,       ,skL_3_1
PLIST   ,    104, PSHELL,    114
DESVARP ,    105,    105,  4.E-2,   0.75,    0.2,       ,       ,skL_3_2
PLIST   ,    105, PSHELL,    130
DESVARP ,    106,    106,  4.E-2,   0.75,    0.2,       ,       ,skL_4_1
PLIST   ,    106, PSHELL,    115
DESVARP ,    107,    107,  4.E-2,   0.75,    0.2,       ,       ,skL_4_2
PLIST   ,    107, PSHELL,    131
DESVARP ,    108,    108,  4.E-2,   0.75,    0.2,       ,       ,skL_5_1
PLIST   ,    108, PSHELL,    116
DESVARP ,    109,    109,  4.E-2,   0.75,    0.2,       ,       ,skL_5_2
PLIST   ,    109, PSHELL,    132
DESVARP ,    110,    110,  4.E-2,   0.75,    0.2,       ,       ,skL_6_1
PLIST   ,    110, PSHELL,    117
DESVARP ,    111,    111,  4.E-2,   0.75,    0.2,       ,       ,skL_6_2
PLIST   ,    111, PSHELL,    133
DESVARP ,    112,    112,  4.E-2,   0.75,    0.2,       ,       ,skL_7_1
PLIST   ,    112, PSHELL,    118
DESVARP ,    113,    113,  4.E-2,   0.75,    0.2,       ,       ,skL_7_2
PLIST   ,    113, PSHELL,    134
DESVARP ,    114,    114,  4.E-2,   0.75,    0.2,       ,       ,skL_8_1
PLIST   ,    114, PSHELL,    119
DESVARP ,    115,    115,  4.E-2,   0.75,    0.2,       ,       ,skL_8_2
PLIST   ,    115, PSHELL,    135
DESVARP ,    116,    116,  4.E-2,   0.75,    0.2,       ,       ,skL_9_1
PLIST   ,    116, PSHELL,    120
DESVARP ,    117,    117,  4.E-2,   0.75,    0.2,       ,       ,skL_9_2
PLIST   ,    117, PSHELL,    136
DESVARP ,    118,    118,  4.E-2,   0.75,    0.2,       ,       , VAR118
PLIST   ,    118, PSHELL,     85
DESVARP ,    119,    119,  4.E-2,   0.75,    0.2,       ,       , VAR119
PLIST   ,    119, PSHELL,    101
DESVARP ,    120,    120,  4.E-2,   0.75,    0.2,       ,       , VAR120
PLIST   ,    120, PSHELL,     86
DESVARP ,    121,    121,  4.E-2,   0.75,    0.2,       ,       , VAR121
PLIST   ,    121, PSHELL,    102
DESVARP ,    122,    122,  4.E-2,   0.75,    0.2,       ,       , VAR122
PLIST   ,    122, PSHELL,     87
DESVARP ,    123,    123,  4.E-2,   0.75,    0.2,       ,       , VAR123
PLIST   ,    123, PSHELL,    103
DESVARP ,    124,    124,  4.E-2,   0.75,    0.2,       ,       , VAR124
PLIST   ,    124, PSHELL,     88
DESVARP ,    125,    125,  4.E-2,   0.75,    0.2,       ,       , VAR125
PLIST   ,    125, PSHELL,    104
DESVARP ,    126,    126,  4.E-2,   0.75,    0.2,       ,       , VAR126
PLIST   ,    126, PSHELL,     89
DESVARP ,    127,    127,  4.E-2,   0.75,    0.2,       ,       , VAR127
PLIST   ,    127, PSHELL,    105
DESVARP ,    128,    128,  4.E-2,   0.75,    0.2,       ,       , VAR128
PLIST   ,    128, PSHELL,     90
DESVARP ,    129,    129,  4.E-2,   0.75,    0.2,       ,       , VAR129
PLIST   ,    129, PSHELL,    106
DESVARP ,    130,    130,  4.E-2,   0.75,    0.2,       ,       , VAR130
PLIST   ,    130, PSHELL,     91
DESVARP ,    131,    131,  4.E-2,   0.75,    0.2,       ,       , VAR131
PLIST   ,    131, PSHELL,    107
DESVARP ,    132,    132,  4.E-2,   0.75,    0.2,       ,       , VAR132
PLIST   ,    132, PSHELL,     92
DESVARP ,    133,    133,  4.E-2,   0.75,    0.2,       ,       , VAR133
PLIST   ,    133, PSHELL,    108
DESVARP ,    134,    134,  4.E-2,   0.75,    0.2,       ,       , VAR134
PLIST   ,    134, PSHELL,     74
DESVARP ,    135,    135,  4.E-2,   0.75,    0.2,       ,       , VAR135
PLIST   ,    135, PSHELL,     73
DESVARP ,    136,    136,  4.E-2,   0.75,    0.2,       ,       , VAR136
PLIST   ,    136, PSHELL,    145
DESVARP ,    137,    137,  4.E-2,   0.75,    0.2,       ,       , VAR137
PLIST   ,    137, PSHELL,    146
DESVARP ,    138,    138,  4.E-2,   0.75,    0.2,       ,       ,skU_1_1
PLIST   ,    138, PSHELL,     75
DESVARP ,    139,    139,  4.E-2,   0.75,    0.2,       ,       ,skU_1_2
PLIST   ,    139, PSHELL,     76
DESVARP ,    140,    140,  4.E-2,   0.75,    0.2,       ,       , VAR140
PLIST   ,    140, PSHELL,    147
DESVARP ,    141,    141,  4.E-2,   0.75,    0.2,       ,       , VAR141
PLIST   ,    141, PSHELL,    168
DESVARP ,    142,    142,  4.E-2,   0.75,    0.2,       ,       , VAR142
PLIST   ,    142, PSHELL,    148
DESVARP ,    143,    143,  4.E-2,   0.75,    0.2,       ,       , VAR143
PLIST   ,    143, PSHELL,    169
DESVARP ,    144,    144,  4.E-2,   0.75,    0.2,       ,       , VAR144
PLIST   ,    144, PSHELL,    149
DESVARP ,    145,    145,  4.E-2,   0.75,    0.2,       ,       , VAR145
PLIST   ,    145, PSHELL,    170
DESVARP ,    146,    146,  4.E-2,   0.75,    0.2,       ,       , VAR146
PLIST   ,    146, PSHELL,    150
DESVARP ,    147,    147,  4.E-2,   0.75,    0.2,       ,       , VAR147
PLIST   ,    147, PSHELL,    171
DESVARP ,    148,    148,  4.E-2,   0.75,    0.2,       ,       , VAR148
PLIST   ,    148, PSHELL,    151
DESVARP ,    149,    149,  4.E-2,   0.75,    0.2,       ,       , VAR149
PLIST   ,    149, PSHELL,    172
DESVARP ,    150,    150,  4.E-2,   0.75,    0.2,       ,       , VAR150
PLIST   ,    150, PSHELL,    152
DESVARP ,    151,    151,  4.E-2,   0.75,    0.2,       ,       , VAR151
PLIST   ,    151, PSHELL,    173
DESVARP ,    152,    152,  4.E-2,   0.75,    0.2,       ,       , VAR152
PLIST   ,    152, PSHELL,    153
DESVARP ,    153,    153,  4.E-2,   0.75,    0.2,       ,       , VAR153
PLIST   ,    153, PSHELL,    174
DESVARP ,    154,    154,  4.E-2,   0.75,    0.2,       ,       , VAR154
PLIST   ,    154, PSHELL,    154
DESVARP ,    155,    155,  4.E-2,   0.75,    0.2,       ,       , VAR155
PLIST   ,    155, PSHELL,    175
DESVARP ,    156,    156,  4.E-2,   0.75,    0.2,       ,       , VAR156
PLIST   ,    156, PSHELL,    155
DESVARP ,    157,    157,  4.E-2,   0.75,    0.2,       ,       , VAR157
PLIST   ,    157, PSHELL,    176
DESVARP ,    158,    158,  4.E-2,   0.75,    0.2,       ,       , VAR158
PLIST   ,    158, PSHELL,    156
DESVARP ,    159,    159,  4.E-2,   0.75,    0.2,       ,       , VAR159
PLIST   ,    159, PSHELL,    177
DESVARP ,    160,    160,  4.E-2,   0.75,    0.2,       ,       ,skU_2_1
PLIST   ,    160, PSHELL,     77
DESVARP ,    161,    161,  4.E-2,   0.75,    0.2,       ,       ,skU_2_2
PLIST   ,    161, PSHELL,     93
DESVARP ,    162,    162,  4.E-2,   0.75,    0.2,       ,       , VAR162
PLIST   ,    162, PSHELL,    157
DESVARP ,    163,    163,  4.E-2,   0.75,    0.2,       ,       , VAR163
PLIST   ,    163, PSHELL,    178
DESVARP ,    164,    164,  4.E-2,   0.75,    0.2,       ,       , VAR164
PLIST   ,    164, PSHELL,    158
DESVARP ,    165,    165,  4.E-2,   0.75,    0.2,       ,       , VAR165
PLIST   ,    165, PSHELL,    179
DESVARP ,    166,    166,  4.E-2,   0.75,    0.2,       ,       , VAR166
PLIST   ,    166, PSHELL,    159
DESVARP ,    167,    167,  4.E-2,   0.75,    0.2,       ,       , VAR167
PLIST   ,    167, PSHELL,    180
DESVARP ,    168,    168,  4.E-2,   0.75,    0.2,       ,       , VAR168
PLIST   ,    168, PSHELL,    160
DESVARP ,    169,    169,  4.E-2,   0.75,    0.2,       ,       , VAR169
PLIST   ,    169, PSHELL,    181
DESVARP ,    170,    170,  4.E-2,   0.75,    0.2,       ,       , VAR170
PLIST   ,    170, PSHELL,    161
DESVARP ,    171,    171,  4.E-2,   0.75,    0.2,       ,       , VAR171
PLIST   ,    171, PSHELL,    182
DESVARP ,    172,    172,  4.E-2,   0.75,    0.2,       ,       , VAR172
PLIST   ,    172, PSHELL,    162
DESVARP ,    173,    173,  4.E-2,   0.75,    0.2,       ,       , VAR173
PLIST   ,    173, PSHELL,    183
DESVARP ,    174,    174,  4.E-2,   0.75,    0.2,       ,       , VAR174
PLIST   ,    174, PSHELL,    163
DESVARP ,    175,    175,  4.E-2,   0.75,    0.2,       ,       , VAR175
PLIST   ,    175, PSHELL,    184
DESVARP ,    176,    176,  4.E-2,   0.75,    0.2,       ,       , VAR176
PLIST   ,    176, PSHELL,    164
DESVARP ,    177,    177,  4.E-2,   0.75,    0.2,       ,       , VAR177
PLIST   ,    177, PSHELL,    185
DESVARP ,    178,    178,  4.E-2,   0.75,    0.2,       ,       , VAR178
PLIST   ,    178, PSHELL,    165
DESVARP ,    179,    179,  4.E-2,   0.75,    0.2,       ,       , VAR179
PLIST   ,    179, PSHELL,    186
DESVARP ,    180,    180,  4.E-2,   0.75,    0.2,       ,       , VAR180
PLIST   ,    180, PSHELL,    166
DESVARP ,    181,    181,  4.E-2,   0.75,    0.2,       ,       , VAR181
PLIST   ,    181, PSHELL,    167
DESVARP ,    182,    182,  4.E-2,   0.75,    0.2,       ,       ,skU_3_1
PLIST   ,    182, PSHELL,     78
DESVARP ,    183,    183,  4.E-2,   0.75,    0.2,       ,       ,skU_3_2
PLIST   ,    183, PSHELL,     94
DESVARP ,    184,    184,  4.E-2,   0.75,    0.2,       ,       ,skU_4_1
PLIST   ,    184, PSHELL,     79
DESVARP ,    185,    185,  4.E-2,   0.75,    0.2,       ,       ,skU_4_2
PLIST   ,    185, PSHELL,     95
DESVARP ,    186,    186,  4.E-2,   0.75,    0.2,       ,       ,skU_5_1
PLIST   ,    186, PSHELL,     80
DESVARP ,    187,    187,  4.E-2,   0.75,    0.2,       ,       ,skU_5_2
PLIST   ,    187, PSHELL,     96
DESVARP ,    188,    188,  4.E-2,   0.75,    0.2,       ,       ,skU_6_1
PLIST   ,    188, PSHELL,     81
DESVARP ,    189,    189,  4.E-2,   0.75,    0.2,       ,       ,skU_6_2
PLIST   ,    189, PSHELL,     97
DESVARP ,    190,    190,  4.E-2,   0.75,    0.2,       ,       ,skU_7_1
PLIST   ,    190, PSHELL,     82
DESVARP ,    191,    191,  4.E-2,   0.75,    0.2,       ,       ,skU_7_2
PLIST   ,    191, PSHELL,     98
DESVARP ,    192,    192,  4.E-2,   0.75,    0.2,       ,       ,skU_8_1
PLIST   ,    192, PSHELL,     83
DESVARP ,    193,    193,  4.E-2,   0.75,    0.2,       ,       ,skU_8_2
PLIST   ,    193, PSHELL,     99
DESVARP ,    194,    194,  4.E-2,   0.75,    0.2,       ,       ,skU_9_1
PLIST   ,    194, PSHELL,     84
DESVARP ,    195,    195,  4.E-2,   0.75,    0.2,       ,       ,skU_9_2
PLIST   ,    195, PSHELL,    100
DESVARP ,    196,    196,  4.E-2,   0.75,    0.2,       ,       , VAR196
PLIST   ,    196, PSHELL,    352
DESVARP ,    197,    197,  4.E-2,   0.75,    0.2,       ,       , VAR197
PLIST   ,    197, PSHELL,    256
DESVARP ,    198,    198,  4.E-2,   0.75,    0.2,       ,       , VAR198
PLIST   ,    198, PSHELL,    260
DESVARP ,    199,    199,  4.E-2,   0.75,    0.2,       ,       , VAR199
PLIST   ,    199, PSHELL,    353
DESVARP ,    200,    200,  4.E-2,   0.75,    0.2,       ,       , VAR200
PLIST   ,    200, PSHELL,    259
DESVARP ,    201,    201,  4.E-2,   0.75,    0.2,       ,       , VAR201
PLIST   ,    201, PSHELL,    263
DESVARP ,    202,    202,  4.E-2,   0.75,    0.2,       ,       , VAR202
PLIST   ,    202, PSHELL,    354
DESVARP ,    203,    203,  4.E-2,   0.75,    0.2,       ,       , VAR203
PLIST   ,    203, PSHELL,    262
DESVARP ,    204,    204,  4.E-2,   0.75,    0.2,       ,       , VAR204
PLIST   ,    204, PSHELL,    266
DESVARP ,    205,    205,  4.E-2,   0.75,    0.2,       ,       , VAR205
PLIST   ,    205, PSHELL,    355
DESVARP ,    206,    206,  4.E-2,   0.75,    0.2,       ,       , VAR206
PLIST   ,    206, PSHELL,    265
DESVARP ,    207,    207,  4.E-2,   0.75,    0.2,       ,       , VAR207
PLIST   ,    207, PSHELL,    269
DESVARP ,    208,    208,  4.E-2,   0.75,    0.2,       ,       , VAR208
PLIST   ,    208, PSHELL,    356
DESVARP ,    209,    209,  4.E-2,   0.75,    0.2,       ,       , VAR209
PLIST   ,    209, PSHELL,    268
DESVARP ,    210,    210,  4.E-2,   0.75,    0.2,       ,       , VAR210
PLIST   ,    210, PSHELL,    272
DESVARP ,    211,    211,  4.E-2,   0.75,    0.2,       ,       , VAR211
PLIST   ,    211, PSHELL,    357
DESVARP ,    212,    212,  4.E-2,   0.75,    0.2,       ,       , VAR212
PLIST   ,    212, PSHELL,    271
DESVARP ,    213,    213,  4.E-2,   0.75,    0.2,       ,       , VAR213
PLIST   ,    213, PSHELL,    275
DESVARP ,    214,    214,  4.E-2,   0.75,    0.2,       ,       , VAR214
PLIST   ,    214, PSHELL,    358
DESVARP ,    215,    215,  4.E-2,   0.75,    0.2,       ,       , VAR215
$ ... 195 like lines cut
CAERO6  ,   1000,   Wing,       ,      1,  11001,  11002
$ Chord
AEFACT  ,  11001,     0.,3.84615,7.69231,11.5385,15.3846,19.2308,23.0769,+0      
+0      ,26.9231,30.7692,34.6154,38.4615,42.3077,46.1538,    50.,53.8462,+1      
+1      ,57.6923,61.5385,65.3846,69.2308,73.0769,76.9231,80.7692,84.6154,+2      
+2      ,88.4615,92.3077,96.1538,   100.
CORD2R  ,   2000,       ,589.482,918.611,-0.6397,589.482,918.611, 0.3603,+0      
+0      ,590.482,302.941,-0.1397
AESURF  ,  ailRS,    SYM,   1000,   2000,   1018,   3079
CORD2R  ,   2001,       ,589.482,918.611,-0.6397,589.482,918.611, 0.3603,+0      
+0      ,590.482,302.941,-0.1397
AESURF  ,  ailRA,ANTISYM,   1000,   2001,   1018,   3079
$ Span
AEFACT  ,  11002,     0.,13.7825, 27.565,41.3475,  55.13,68.9125, 82.695,+0      
+0      ,96.4775, 110.26,124.042,137.825,151.607, 165.39,179.172,192.955,+1      
+1      ,206.737, 220.52,234.302,248.085,261.867, 275.65,289.432,303.215,+2      
+2      ,316.997, 330.78,344.562,358.345,372.127, 385.91,399.692,413.475,+3      
+3      ,427.257, 441.04,454.822,468.605,482.387, 496.17,509.952,523.735,+4      
+4      ,537.838, 551.94,566.043,580.146,594.249,608.351,622.454,636.557,+5      
+5      ,650.659,664.762,678.865,692.968, 707.07,721.173,735.276,749.378,+6      
+6      ,763.481,777.584,791.687,805.789,819.892,833.995,848.097,  862.2,+7      
+7      ,876.303,890.406,904.508,918.611,932.968,947.324,961.681,976.037,+8      
+8      ,990.394,1004.75,1019.11,1033.46,1047.82,1062.18,1076.53,1090.89,+9      
+9      ,1105.25,1117.11
AIRFOIL ,   1000,   Wing,       ,   1100,   1101,   1102,       ,       ,+0      
+0      ,     0.,     0.,     0.,719.244
AIRFOIL ,   1000,   Wing,       ,   1200,   1201,   1202,       ,       ,+0      
+0      ,268.692,523.735,     0.,181.861
AIRFOIL ,   1000,   Wing,       ,   1300,   1301,   1302,       ,       ,+0      
+0      ,471.275,918.611,2.41E-6,181.859
AIRFOIL ,   1000,   Wing,       ,   1400,   1401,   1402,       ,       ,+0      
+0      ,567.025,1105.25,7.26E-6,181.861
AIRFOIL ,   1000,   Wing,       ,   1500,   1501,   1502,       ,       ,+0      
+0      ,573.113,1117.11,7.52E-6,181.861
$ Upper surface - Airfoil 1 (of 5) 
AEFACT  ,   1101,     0.,2.31E-2,3.47E-2,4.74E-2,6.07E-2,7.47E-2,8.78E-2,+0      
+0      ,9.96E-2,0.10969,0.11777,0.12359,0.12696,0.12777,0.12582,0.12083,+1      
+1      ,0.11273,0.10198,8.95E-2,7.62E-2,6.26E-2,4.95E-2,3.75E-2,2.71E-2,+2      
+2      ,1.84E-2,1.14E-2,6.61E-3,3.77E-3,2.28E-3,1.08E-3,1.39E-9
$ Lower surface - Airfoil 1 (of 5) 
AEFACT  ,   1102,     0.,-2.5E-3,-7.9E-3,-1.3E-2,-1.6E-2,-1.9E-2,-2.3E-2,+0      
+0      ,-2.7E-2,-3.1E-2,-3.6E-2,-4.1E-2,-4.6E-2, -5.E-2,-5.4E-2,-5.6E-2,+1      
+1      ,-5.7E-2,-5.6E-2,-5.3E-2,-4.9E-2,-4.5E-2, -4.E-2,-3.4E-2,-2.9E-2,+2      
+2      ,-2.3E-2,-1.8E-2,-1.3E-2,-8.9E-3,-5.4E-3,-2.1E-3,1.39E-9
$ Chord - Airfoil 1 (of 5) 
AEFACT  ,   1100,     0., 0.2931,1.16897,2.61734,4.62123,7.15714,10.1953,+0      
+0      ,13.7002,17.6307,21.9406,26.5796,31.4931,36.6236,41.9109,47.2931,+1      
+1      ,52.7069,58.0891,63.3764,68.5069,73.4204,78.0594,82.3693,86.2998,+2      
+2      ,89.8047,92.8429,95.3788,97.3827, 98.831,99.7069,   100.
$ Upper surface - Airfoil 2 (of 5) 
AEFACT  ,   1201,     0.,1.98E-2,3.07E-2,4.26E-2,5.48E-2,6.78E-2,8.01E-2,+0      
+0      ,9.12E-2,0.10084,0.10865,0.11446,0.11809,0.11942,0.11831,0.11453,+1      
+1      ,0.10801,9.92E-2,8.88E-2,7.76E-2,6.61E-2,5.51E-2,4.48E-2, 3.6E-2,+2      
+2      ,2.85E-2,2.26E-2,1.87E-2,1.67E-2,1.55E-2, 1.4E-2,1.29E-2
$ Lower surface - Airfoil 2 (of 5) 
AEFACT  ,   1202,     0.,-2.6E-3,-7.5E-3,-1.1E-2,-1.3E-2,-1.5E-2,-1.8E-2,+0      
+0      ,-2.1E-2,-2.4E-2,-2.7E-2,-3.1E-2,-3.4E-2,-3.8E-2, -4.E-2,-4.2E-2,+1      
+1      ,-4.2E-2, -4.E-2,-3.7E-2,-3.4E-2,-2.9E-2,-2.4E-2,-1.9E-2,-1.4E-2,+2      
+2      ,-8.5E-3,-3.3E-3,1.38E-3,5.48E-3,8.73E-3,1.13E-2,1.29E-2
$ Chord - Airfoil 2 (of 5) 
AEFACT  ,   1200,     0., 0.2931,1.16897,2.61734,4.62123,7.15714,10.1953,+0      
+0      ,13.7002,17.6307,21.9406,26.5796,31.4931,36.6236,41.9109,47.2931,+1      
+1      ,52.7069,58.0891,63.3764,68.5069,73.4204,78.0594,82.3693,86.2998,+2      
+2      ,89.8047,92.8429,95.3788,97.3827, 98.831,99.7069,   100.
$ Upper surface - Airfoil 3 (of 5) 
AEFACT  ,   1301,     0., 1.4E-2,2.26E-2,3.19E-2,4.12E-2,5.11E-2,6.05E-2,+0      
+0      ,6.89E-2, 7.6E-2,8.18E-2, 8.6E-2,8.84E-2,8.91E-2,8.79E-2,8.46E-2,+1      
+1      ,7.93E-2,7.22E-2, 6.4E-2,5.51E-2,4.61E-2,3.74E-2,2.94E-2,2.25E-2,+2      
+2      ,1.68E-2,1.24E-2,9.59E-3,8.27E-3,7.36E-3,6.28E-3,5.41E-3
$ Lower surface - Airfoil 3 (of 5) 
AEFACT  ,   1302,     0.,-2.6E-3,-6.8E-3,-9.8E-3,-1.1E-2,-1.3E-2,-1.5E-2,+0      
+0      ,-1.8E-2,-2.1E-2,-2.4E-2,-2.7E-2, -3.E-2,-3.3E-2,-3.5E-2,-3.7E-2,+1      
+1      ,-3.7E-2,-3.7E-2,-3.5E-2,-3.2E-2,-2.9E-2,-2.5E-2,-2.1E-2,-1.7E-2,+2      
+2      ,-1.2E-2,-8.1E-3,-4.1E-3,-5.7E-4,2.08E-3,4.13E-3,5.41E-3
$ Chord - Airfoil 3 (of 5) 
AEFACT  ,   1300,     0., 0.2931,1.16897,2.61734,4.62123,7.15714,10.1953,+0      
+0      ,13.7002,17.6307,21.9406,26.5796,31.4931,36.6236,41.9109,47.2931,+1      
+1      ,52.7069,58.0891,63.3764,68.5069,73.4204,78.0594,82.3693,86.2998,+2      
+2      ,89.8047,92.8429,95.3788,97.3827, 98.831,99.7069,   100.
$ Upper surface - Airfoil 4 (of 5) 
AEFACT  ,   1401,     0.,1.33E-2,2.22E-2,3.16E-2, 4.1E-2,5.08E-2,6.02E-2,+0      
+0      ,6.85E-2,7.57E-2,8.14E-2,8.54E-2,8.78E-2,8.84E-2, 8.7E-2,8.37E-2,+1      
+1      ,7.82E-2, 7.1E-2,6.26E-2,5.35E-2,4.44E-2,3.55E-2,2.74E-2,2.04E-2,+2      
+2      ,1.46E-2,  1.E-2,7.16E-3,5.86E-3,4.98E-3,3.92E-3,3.04E-3
$ Lower surface - Airfoil 4 (of 5) 
AEFACT  ,   1402,     0.,-3.1E-3,-7.7E-3,-1.1E-2,-1.3E-2,-1.5E-2,-1.7E-2,+0      
+0      , -2.E-2,-2.3E-2,-2.6E-2, -3.E-2,-3.3E-2,-3.6E-2,-3.9E-2,-4.1E-2,+1      
+1      ,-4.1E-2, -4.E-2,-3.8E-2,-3.6E-2,-3.2E-2,-2.8E-2,-2.4E-2, -2.E-2,+2      
+2      ,-1.5E-2,-1.1E-2,-6.8E-3,-3.2E-3, -4.E-4,1.73E-3,3.04E-3
$ Chord - Airfoil 4 (of 5) 
AEFACT  ,   1400,     0., 0.2931,1.16897,2.61734,4.62123,7.15714,10.1953,+0      
+0      ,13.7002,17.6307,21.9406,26.5796,31.4931,36.6236,41.9109,47.2931,+1      
+1      ,52.7069,58.0891,63.3764,68.5069,73.4204,78.0594,82.3693,86.2998,+2      
+2      ,89.8047,92.8429,95.3788,97.3827, 98.831,99.7069,   100.
$ Upper surface - Airfoil 5 (of 5) 
AEFACT  ,   1501,     0.,1.32E-2,2.21E-2,3.15E-2,4.09E-2,5.07E-2,  6.E-2,+0      
+0      ,6.84E-2,7.55E-2,8.12E-2,8.52E-2,8.76E-2,8.81E-2,8.68E-2,8.34E-2,+1      
+1      , 7.8E-2,7.07E-2,6.23E-2,5.33E-2,4.42E-2,3.53E-2,2.72E-2,2.02E-2,+2      
+2      ,1.44E-2,9.85E-3,6.98E-3,5.69E-3,4.81E-3,3.75E-3,2.88E-3
$ Lower surface - Airfoil 5 (of 5) 
AEFACT  ,   1502,     0.,-3.2E-3,-7.7E-3,-1.1E-2,-1.3E-2,-1.5E-2,-1.8E-2,+0      
+0      , -2.E-2,-2.3E-2,-2.7E-2, -3.E-2,-3.3E-2,-3.6E-2,-3.9E-2,-4.1E-2,+1      
+1      ,-4.1E-2, -4.E-2,-3.9E-2,-3.6E-2,-3.2E-2,-2.9E-2,-2.4E-2, -2.E-2,+2      
+2      ,-1.6E-2,-1.1E-2, -7.E-3,-3.3E-3,-5.6E-4,1.57E-3,2.88E-3
$ Chord - Airfoil 5 (of 5) 
AEFACT  ,   1500,     0., 0.2931,1.16897,2.61734,4.62123,7.15714,10.1953,+0      
+0      ,13.7002,17.6307,21.9406,26.5796,31.4931,36.6236,41.9109,47.2931,+1      
+1      ,52.7069,58.0891,63.3764,68.5069,73.4204,78.0594,82.3693,86.2998,+2      
+2      ,89.8047,92.8429,95.3788,97.3827, 98.831,99.7069,   100.
SPLINE1 ,   1000,       ,   1000,   1000,   3079,   1000
SET1    ,   1000,     73,     74,     75,     76,     77,     78,     79,+0      
+0      ,     80,     82,     83,     84,     85,     86,     88,     89,+1      
+1      ,     90,     91,     92,     93,     94,     95,     97,     98,+2      
+2      ,     99,    100,    101,    103,    104,    105,    106,    107,+3      
+3      ,    109,    110,    111,    112,    113,    115,    116,    117,+4      
+4      ,    118,    119,    121,    122,    123,    124,    125,    127,+5      
+5      ,    128,    129,    130,    131,    133,    134,    135,    136,+6      
+6      ,    137,    139,    140,    141,    142,    143,    145,    146,+7      
+7      ,    147,    148,    149,    151,    152,    153,    154,    155,+8      
+8      ,    157,    158,    159,    160,    161,    163,    164,    165,+9      
+9      ,    166,    167,    169,    170,    171,    172,    173,    175,+10     
+10     ,    176,    177,    178,    179,    181,    182,    183,    184,+11     
+11     ,    185,    187,    188,    189,    190,    191,    193,    194,+12     
+12     ,    196,    197,    198,    200,    201,    202,    204,    205,+13     
+13     ,    206,    208,    209,    210,    212,    213,    214,    216,+14     
+14     ,    217,    218,    220,    221,    222,    224,    225,    226,+15     
+15     ,    228,    229,    230,    232,    233,    234,    236,    237,+16     
+16     ,    238,    240,    241,    242,    244,    245,    246,    248,+17     
+17     ,    249,    250,    252,    253,    254,    256,    443,    444,+18     
+18     ,    445,    446,    447,    449,    450,    451,    453,    454,+19     
+19     ,    455,    456,    457,    459,    460,    461,    462,    463,+20     
$ ... 19 like lines cut
$
INCLUDE VORTECS_0.bdf
$
ENDDATA
