$---1---|---2---|---3---|---4---|---5---|---6---|---7---|---8---|---9---|---10--|
$Grid Points
GRID   ,      1,       ,     6.,     0.,     3.
GRID   ,      2,       ,    24.,     0.,     3.
GRID   ,      3,       ,    42.,     0.,     3.
GRID   ,      4,       ,     6.,    30.,     3.
GRID   ,      5,       ,    24.,    30.,     3.
GRID   ,      6,       ,    42.,    30.,     3.
GRID   ,      7,       ,     6.,    60.,     3.
GRID   ,      8,       ,    24.,    60.,     3.
GRID   ,      9,       ,    42.,    60.,     3.
GRID   ,     10,       ,     6.,    90.,     3.
GRID   ,     11,       ,    24.,    90.,     3.
GRID   ,     12,       ,    42.,    90.,     3.
GRID   ,     13,       ,     6.,   120.,     3.
GRID   ,     14,       ,    24.,   120.,     3.
GRID   ,     15,       ,    42.,   120.,     3.
GRID   ,     16,       ,     6.,     0.,    -3.
GRID   ,     17,       ,    24.,     0.,    -3.
GRID   ,     18,       ,    42.,     0.,    -3.
GRID   ,     19,       ,     6.,    30.,    -3.
GRID   ,     20,       ,    24.,    30.,    -3.
$ ... 10 like lines cut
$---1---|---2---|---3---|---4---|---5---|---6---|---7---|---8---|---9---|---10--|
$Skin Pannels
CQUAD4 ,      1,      1,      1,      2,      5,      4
CQUAD4 ,      2,      1,      2,      3,      6,      5
CQUAD4 ,      3,      1,      4,      5,      8,      7
CQUAD4 ,      4,      1,      5,      6,      9,      8
CQUAD4 ,      5,      1,      7,      8,     11,     10
CQUAD4 ,      6,      1,      8,      9,     12,     11
CQUAD4 ,      7,      1,     10,     11,     14,     13
CQUAD4 ,      8,      1,     11,     12,     15,     14
CQUAD4 ,      9,      1,     16,     17,     20,     19
CQUAD4 ,     10,      1,     17,     18,     21,     20
CQUAD4 ,     11,      1,     19,     20,     23,     22
CQUAD4 ,     12,      1,     20,     21,     24,     23
CQUAD4 ,     13,      1,     22,     23,     26,     25
CQUAD4 ,     14,      1,     23,     24,     27,     26
CQUAD4 ,     15,      1,     25,     26,     29,     28
CQUAD4 ,     16,      1,     26,     27,     30,     29
$---1---|---2---|---3---|---4---|---5---|---6---|---7---|---8---|---9---|---10--|
$Ribs Pannels
CQUAD4 ,     17,      2,      1,      2,     17,     16
CQUAD4 ,     18,      2,      2,      3,     18,     17
CQUAD4 ,     19,      2,      4,      5,     20,     19
CQUAD4 ,     20,      2,      5,      6,     21,     20
CQUAD4 ,     21,      2,      7,      8,     23,     22
CQUAD4 ,     22,      2,      8,      9,     24,     23
CQUAD4 ,     23,      3,     10,     11,     26,     25
CQUAD4 ,     24,      3,     11,     12,     27,     26
CQUAD4 ,     25,      3,     13,     14,     29,     28
CQUAD4 ,     26,      3,     14,     15,     30,     29
$---1---|---2---|---3---|---4---|---5---|---6---|---7---|---8---|---9---|---10--|
$Spars Pannels
CQUAD4 ,     27,      4,      1,     16,     19,      4
CQUAD4 ,     28,      4,      4,     19,     22,      7
CQUAD4 ,     29,      4,      7,     22,     25,     10
CQUAD4 ,     30,      4,     10,     25,     28,     13
CQUAD4 ,     31,      5,      2,     17,     20,      5
CQUAD4 ,     32,      5,      5,     20,     23,      8
CQUAD4 ,     33,      5,      8,     23,     26,     11
CQUAD4 ,     34,      5,     11,     26,     29,     14
CQUAD4 ,     35,      4,      3,     18,     21,      6
CQUAD4 ,     36,      4,      6,     21,     24,      9
CQUAD4 ,     37,      4,      9,     24,     27,     12
CQUAD4 ,     38,      4,     12,     27,     30,     15
$---1---|---2---|---3---|---4---|---5---|---6---|---7---|---8---|---9---|---10--|
$Spars Caps
CBAR   ,     39,      1,      1,      4,      3
CBAR   ,     40,      1,      4,      7,      3
CBAR   ,     41,      1,      7,     10,      3
CBAR   ,     42,      1,     10,     13,      3
CBAR   ,     43,      1,      2,      5,      3
CBAR   ,     44,      1,      5,      8,      3
CBAR   ,     45,      1,      8,     11,      3
CBAR   ,     46,      1,     11,     14,      3
CBAR   ,     47,      1,      3,      6,      1
CBAR   ,     48,      1,      6,      9,      1
CBAR   ,     49,      1,      9,     12,      1
CBAR   ,     50,      1,     12,     15,      1
CBAR   ,     51,      1,     16,     19,     18
CBAR   ,     52,      1,     19,     22,     18
CBAR   ,     53,      1,     22,     25,     18
CBAR   ,     54,      1,     25,     28,     18
CBAR   ,     55,      1,     17,     20,     18
CBAR   ,     56,      1,     20,     23,     18
CBAR   ,     57,      1,     23,     26,     18
CBAR   ,     58,      1,     26,     29,     18
$ ... 4 like lines cut
$---1---|---2---|---3---|---4---|---5---|---6---|---7---|---8---|---9---|---10--|
$Posts
CROD   ,     63,      1,     16,      1
CROD   ,     64,      1,     17,      2
CROD   ,     65,      1,     18,      3
CROD   ,     66,      1,     19,      4
CROD   ,     67,      1,     20,      5
CROD   ,     68,      1,     21,      6
CROD   ,     69,      1,     22,      7
CROD   ,     70,      1,     23,      8
CROD   ,     71,      1,     24,      9
CROD   ,     72,      1,     25,     10
CROD   ,     73,      1,     26,     11
CROD   ,     74,      1,     27,     12
CROD   ,     75,      1,     28,     13
CROD   ,     76,      1,     29,     14
CROD   ,     77,      1,     30,     15
$---1---|---2---|---3---|---4---|---5---|---6---|---7---|---8---|---9---|---10--|
$Material Properties
MAT1   ,      1,   1.E6,       ,     .3,     .1
$---1---|---2---|---3---|---4---|---5---|---6---|---7---|---8---|---9---|---10--|
$Defining Properties
PSHELL ,      1,      1,   0.2
PSHELL ,      2,      1,   0.25
PSHELL ,      3,      1,   0.1
PSHELL ,      4,      1,   0.25
PSHELL ,      5,      1,   0.1