SOL 101
CEND
SUBCASE 1
  LOAD = 1
  SPC = 1
  DISP = ALL
  STRESS = ALL
  STRAIN = ALL
  FORCE = ALL
  ESE = ALL
BEGIN BULK
PARAM,POST,-1
SPC1,1,123456
GRID, 1,, 0., 0., 0.
GRID, 2,, 50., 0., 0.

CBAR, 10, 100, 1, 2, 0., 1., 0.
PBARL, 100, 1000,, BAR,,,,,
,10., 30.

MAT1, 1000, 3.0e7,,0.3

$PLOAD1	SID	EID	TYPE	SCALE	X1	P1	X2	P2
PLOAD1	1	10	FX	LE	0.	1.	1.	1.
ENDDATA
