$pyNastran: punch=True
GRID, 1,, 0., 0., 0.
GRID, 2,, 50., 0., 0.

CBAR, 10, 100, 1, 2, 0., 1., 0.
PBARL, 100, 1000,, I,,,,,
$ hall, bflange_btm, bflange_top, tweb, tflange_btm, tflange_top
,30., 20., 10., 2., 1.0, 0.5

MAT1, 1000, 3.0e7,,0.3
