$pyNastran: punch=True
GRID, 1,, 0., 0., 0.
GRID, 2,, 50., 0., 0.

CBAR, 10, 100, 1, 2, 0., 1., 0.
CBAR, 11, 100, 1, 2, 0., 1., 0.,GGG
,,,-5.,0.,20., 0.,0.0,30.
PBARL, 100, 1000,, H,,,,,
$ winner, wouter, hall, hinner
,5., 3., 20., 0.5

MAT1, 1000, 3.0e7,,0.3
