$pyNastran: punch=True
GRID, 1,, 0., 0., 0.
GRID, 2,, 50., 0., 0.
GRID, 3,, 100., 0., 0.

CBAR, 10, 100, 1, 2, 0., 1., 0.
CBAR, 11, 100, 2, 3, 0., 1., 0.

$CBAR, 11, 100, 1, 2, 0., 1., 0.,GGG
$,,,-5.,0.,20., 0.,0.0,30.
PBARL, 100, 1000,, T1,,,,,
$ hall, bfoot, tweb, tflange
,20., 20., 2., 4.

MAT1, 1000, 3.0e7,,0.3
