$ NASTRAN input file created by the Patran 2012 64-Bit input file
$ translator on January   24, 2014 at 11:56:13.
$ Direct Text Input for Nastran System Cell Section
$ Linear Static Analysis, Non-database
SOL 1
CEND
ECHO = NONE
SUBCASE 1
$ Subcase name : Default
   SUBTITLE=Default
   SPC = 2
   LOAD = 3
   TEMPERATURE(BOTH) = 4
   DISPLACEMENT(SORT1,REAL)=ALL
   SPCFORCES(SORT1,REAL)=ALL
   STRESS(SORT1,REAL,VONMISES,BILIN)=ALL
BEGIN BULK
PARAM    POST    -1
PARAM   PRTMAXIM YES
$ Elements and Element Properties for region : psolid.1
PSOLID   1       1       0
$ Pset: "psolid.1" will be imported as: "psolid.1"
CHEXA    1       1       2       12      15      4       50      88
         181     150
CHEXA    2       1       12      13      16      15      88      89
         201     181
CHEXA    3       1       13      14      17      16      89      90
         221     201
CHEXA    4       1       14      9       10      17      90      51
         179     221
CHEXA    5       1       4       15      18      3       150     181
         191     160
CHEXA    6       1       15      16      19      18      181     201
         211     191
CHEXA    7       1       16      17      20      19      201     221
         231     211
CHEXA    8       1       17      10      11      20      221     179
         180     231
CHEXA    9       1       3       18      8       1       160     191
         120     110
CHEXA    10      1       18      19      7       8       191     211
         130     120
CHEXA    11      1       19      20      6       7       211     231
         140     130
CHEXA    12      1       20      11      5       6       231     180
         91      140
CHEXA    13      1       50      88      181     150     49      85
         182     149
CHEXA    14      1       88      89      201     181     85      86
         202     182
CHEXA    15      1       89      90      221     201     86      87
         222     202
CHEXA    16      1       90      51      179     221     87      52
         177     222
CHEXA    17      1       150     181     191     160     149     182
         192     159
CHEXA    18      1       181     201     211     191     182     202
         212     192
CHEXA    19      1       201     221     231     211     202     222
         232     212
CHEXA    20      1       221     179     180     231     222     177
         178     232
$ ... 224 like lines cut
$ Referenced Material Records
$ Material Record : matt1.1
TABLEM1        8  LINEAR  LINEAR
             37.  3.13+7    260.  3.06+7    530.  2.97+7    860.  2.83+7
           1260.  2.65+7   1660.  2.44+7    ENDT
TABLEM1        2  LINEAR  LINEAR
             37.  3.13+7    260.  3.06+7    530.  2.97+7    860.  2.83+7
           1260.  2.65+7   1660.  2.44+7    ENDT
TABLEM1        3  LINEAR  LINEAR
             37.  3.13+7    260.  3.06+7    530.  2.97+7    860.  2.83+7
           1260.  2.65+7   1660.  2.44+7    ENDT
TABLEM1        4  LINEAR  LINEAR
             37.      .3    260.    .304    530.    .309    860.    .314
           1260.    .314   1660.    .328    ENDT
TABLEM1        5  LINEAR  LINEAR
             37.      .3    260.    .304    530.    .309    860.    .314
           1260.    .314   1660.    .328    ENDT
TABLEM1        6  LINEAR  LINEAR
             37.      .3    260.    .304    530.    .309    860.    .314
           1260.    .314   1660.    .328    ENDT
TABLEM1        7  LINEAR  LINEAR
             37.  5.27-6    260.  5.96-6    530.  6.83-6    860.  7.27-6
           1260.  7.74-6   1660.  8.27-6    ENDT
MAT1           1  3.13+7              .3 .000789
MATT1          1       8               4               7
$ Description of Material :
$ Nodes of the Entire Model
GRID     1              -5.     1.       0.
GRID     2              -5.     -1.      0.
GRID     3              -5.     .333333  0.
GRID     4              -5.     -.333333 0.
GRID     5              5.      1.       0.
GRID     6              2.5     1.       0.
GRID     7               0.     1.       0.
GRID     8              -2.5    1.       0.
GRID     9              5.      -1.      0.
GRID     10             5.      -.333333 0.
GRID     11             5.      .333333  0.
GRID     12             -2.5    -1.      0.
GRID     13              0.     -1.      0.
GRID     14             2.5     -1.      0.
GRID     15             -2.5    -.333333 0.
GRID     16             -2.22-16-.333333 0.
GRID     17             2.5     -.333333 0.
GRID     18             -2.5    .333333  0.
GRID     19              0.     .333333  0.
GRID     20             2.5     .333333  0.
$ ... 220 like lines cut
$ Loads for Load Case : Default
SPCADD   2       1
LOAD     3      1.      1.       1
$ Nodal Temperatures of Load Set : tempdef
TEMP     4       1      200.     2      200.     3      200.
TEMP     4       4      200.     5      200.     6      200.
TEMP     4       7      200.     8      200.     9      200.
TEMP     4       10     200.     11     200.     12     200.
TEMP     4       13     200.     14     200.     15     200.
TEMP     4       16     200.     17     200.     18     200.
TEMP     4       19     200.     20     200.     21     200.
TEMP     4       22     200.     23     200.     24     200.
TEMP     4       25     200.     26     200.     27     200.
TEMP     4       28     200.     29     200.     30     200.
TEMP     4       31     200.     32     200.     33     200.
TEMP     4       34     200.     35     200.     36     200.
TEMP     4       37     200.     38     200.     39     200.
TEMP     4       40     200.     41     200.     42     200.
TEMP     4       43     200.     44     200.     45     200.
TEMP     4       46     200.     47     200.     48     200.
TEMP     4       49     200.     50     200.     51     200.
TEMP     4       52     200.     53     200.     54     200.
TEMP     4       55     200.     56     200.     57     200.
TEMP     4       58     200.     59     200.     60     200.
$ ... 60 like lines cut
$ Displacement Constraints of Load Set : spc.1
SPC1     1       123     1       THRU    20
$ Nodal Forces of Load Set : force.1
FORCE    1       26      0      200.     0.     -1.      0.
FORCE    1       29      0      200.     0.     -1.      0.
FORCE    1       30      0      200.     0.     -1.      0.
FORCE    1       31      0      200.     0.     -1.      0.
FORCE    1       32      0      200.     0.     -1.      0.
$ Referenced Coordinate Frames
ENDDATA 7d3a4dba
