$pyNastran: version=msc
$pyNastran: punch=False
$pyNastran: encoding=utf-8
$pyNastran: nnodes=421
$pyNastran: nelements=420
$EXECUTIVE CONTROL DECK
SOL 105
CEND
$CASE CONTROL DECK
DISPLACEMENT(PLOT) = ALL
ECHO = NONE
OLOAD(PLOT) = ALL
SPC = 3
SUBCASE 1
    LOAD = 4
SUBCASE 2
    METHOD = 5
BEGIN BULK
$PARAMS
PARAM       POST       1
$NODES
GRDSET                                                       345
GRID           1              0.      0.      0.
GRID           2              1.      0.      0.
GRID           3              2.      0.      0.
GRID           4              3.      0.      0.
GRID           5              4.      0.      0.
GRID           6              5.      0.      0.
GRID           7              6.      0.      0.
GRID           8              7.      0.      0.
GRID           9              8.      0.      0.
GRID          10              9.      0.      0.
GRID          11             10.      0.      0.
GRID          12             11.      0.      0.
GRID          13             12.      0.      0.
GRID          14             13.      0.      0.
GRID          15             14.      0.      0.
GRID          16             15.      0.      0.
GRID          17             16.      0.      0.
GRID          18             17.      0.      0.
GRID          19             18.      0.      0.
GRID          20             19.      0.      0.
$ ... 401 like lines cut
$ELEMENTS
CBEAM          1       1       1       2      0.      0.      1.
CBEAM          2       1       2       3      0.      0.      1.
CBEAM          3       1       3       4      0.      0.      1.
CBEAM          4       1       4       5      0.      0.      1.
CBEAM          5       1       5       6      0.      0.      1.
CBEAM          6       1       6       7      0.      0.      1.
CBEAM          7       1       7       8      0.      0.      1.
CBEAM          8       1       8       9      0.      0.      1.
CBEAM          9       1       9      10      0.      0.      1.
CBEAM         10       1      10      11      0.      0.      1.
CBEAM         11       1      11      12      0.      0.      1.
CBEAM         12       1      12      13      0.      0.      1.
CBEAM         13       1      13      14      0.      0.      1.
CBEAM         14       1      14      15      0.      0.      1.
CBEAM         15       1      15      16      0.      0.      1.
CBEAM         16       1      16      17      0.      0.      1.
CBEAM         17       1      17      18      0.      0.      1.
CBEAM         18       1      18      19      0.      0.      1.
CBEAM         19       1      19      20      0.      0.      1.
CBEAM         20       1      20      21      0.      0.      1.
$ ... 400 like lines cut
$PROPERTIES
PBEAML         1       1             ROD
             10.      0.
$MATERIALS
MAT1           1 207000.              .3  .00078
$LOADS
FORCE          4     421              1.     -1.      0.      0.
$DYNAMIC
EIGRL          5      0.               1
$SPCs
SPCADD         3       1       2
SPC1           1      12       1
SPC1           2       2     421
