*HEADING
** Use of this file must comply with the Terms and Conditions stated by Structrual FEA, LLC (www.structuralfea.com)
*Part,name=a
***********
***NODES***
***********
*NODE, NSET=ALL
1, 0.00000E+00, 0.00000E+00, 0.00000E+00
2, 5.00000E-01, 0.00000E+00, 0.00000E+00
3, 1.00000E+00, 0.00000E+00, 0.00000E+00
4, 1.50000E+00, 0.00000E+00, 0.00000E+00
5, 2.00000E+00, 0.00000E+00, 0.00000E+00
6, 2.50000E+00, 0.00000E+00, 0.00000E+00
7, 3.00000E+00, 0.00000E+00, 0.00000E+00
8, 3.50000E+00, 0.00000E+00, 0.00000E+00
9, 4.00000E+00, 0.00000E+00, 0.00000E+00
10, 4.50000E+00, 0.00000E+00, 0.00000E+00
11, 5.00000E+00, 0.00000E+00, 0.00000E+00
12, 5.50000E+00, 0.00000E+00, 0.00000E+00
13, 6.00000E+00, 0.00000E+00, 0.00000E+00
14, 6.50000E+00, 0.00000E+00, 0.00000E+00
15, 7.00000E+00, 0.00000E+00, 0.00000E+00
16, 7.50000E+00, 0.00000E+00, 0.00000E+00
17, 8.00000E+00, 0.00000E+00, 0.00000E+00
18, 8.50000E+00, 0.00000E+00, 0.00000E+00
19, 9.00000E+00, 0.00000E+00, 0.00000E+00
20, 9.50000E+00, 0.00000E+00, 0.00000E+00
** ... 321 like lines cut
***************
***ELEMENTS***
***************
*ELEMENT,  TYPE=S8R,  ELSET=PLATE
1, 1, 3, 2003, 2001, 2, 1003, 2002, 1001
2, 3, 5, 2005, 2003, 4, 1005, 2004, 1003
3, 5, 7, 2007, 2005, 6, 1007, 2006, 1005
4, 7, 9, 2009, 2007, 8, 1009, 2008, 1007
5, 9, 11, 2011, 2009, 10, 1011, 2010, 1009
6, 11, 13, 2013, 2011, 12, 1013, 2012, 1011
7, 13, 15, 2015, 2013, 14, 1015, 2014, 1013
8, 15, 17, 2017, 2015, 16, 1017, 2016, 1015
9, 17, 19, 2019, 2017, 18, 1019, 2018, 1017
10, 19, 21, 2021, 2019, 20, 1021, 2020, 1019
2001, 2001, 2003, 4003, 4001, 2002, 3003, 4002, 3001
2002, 2003, 2005, 4005, 4003, 2004, 3005, 4004, 3003
2003, 2005, 2007, 4007, 4005, 2006, 3007, 4006, 3005
2004, 2007, 2009, 4009, 4007, 2008, 3009, 4008, 3007
2005, 2009, 2011, 4011, 4009, 2010, 3011, 4010, 3009
2006, 2011, 2013, 4013, 4011, 2012, 3013, 4012, 3011
2007, 2013, 2015, 4015, 4013, 2014, 3015, 4014, 3013
2008, 2015, 2017, 4017, 4015, 2016, 3017, 4016, 3015
2009, 2017, 2019, 4019, 4017, 2018, 3019, 4018, 3017
2010, 2019, 2021, 4021, 4019, 2020, 3021, 4020, 3019
** ... 80 like lines cut
*end part
************************
***DEFINE ORIENTATION(S)***
************************
*ORIENTATION, SYSTEM=R, NAME=GLOBAL
** Weird because it's 2 nodes to define a coordinate system.
** The trick is that it's defining the material coordinate system,
** so you only need 2 nodes.
1.,          0.,          0.,          0.,          1.,          0.
********************************************
***ISOTROPIC MATERIAL (OPTION A)***
********************************************
*MATERIAL, NAME=A
*ELASTIC, TYPE=ISO
1.00000E+07, 3.00000E-01
*SHELL SECTION,  ELSET=PLATE,  MATERIAL=A, ORIENTATION=GLOBAL
5.00000E-02
**
********************************************************************
***FIXED NODES AT BOTTOM LEFT CORNER TO PREVENT RIGID BODY MOTION***
********************************************************************
*BOUNDARY
1, 1
1, 2
10001, 1
*****************************************
***EDGE BOUNDARY CONDITIONS (SUPPORTS)***
*****************************************
***RIGHT SIDE
21, 3
1021, 3
2021, 3
3021, 3
4021, 3
5021, 3
6021, 3
7021, 3
8021, 3
9021, 3
10021, 3
11021, 3
12021, 3
13021, 3
14021, 3
15021, 3
16021, 3
17021, 3
18021, 3
19021, 3
20021, 3
***TOP SIDE
20001, 3
20002, 3
20003, 3
20004, 3
20005, 3
20006, 3
20007, 3
20008, 3
20009, 3
20010, 3
20011, 3
20012, 3
20013, 3
20014, 3
20015, 3
20016, 3
20017, 3
20018, 3
20019, 3
20020, 3
20021, 3
***LEFT SIDE
1, 3
1001, 3
2001, 3
3001, 3
4001, 3
5001, 3
6001, 3
7001, 3
8001, 3
9001, 3
10001, 3
11001, 3
12001, 3
13001, 3
14001, 3
15001, 3
16001, 3
17001, 3
18001, 3
19001, 3
20001, 3
***BOTTOM SIDE
1, 3
2, 3
3, 3
4, 3
5, 3
6, 3
7, 3
8, 3
9, 3
10, 3
11, 3
12, 3
13, 3
14, 3
15, 3
16, 3
17, 3
18, 3
19, 3
20, 3
21, 3
*******************************************************
*STEP
*BUCKLE
3
*******************************************************
**
*CLOAD
*****************************************
***RUNNING LOADS - TENSION/COMPRESSION***
*****************************************
***NX (RIGHT)
21, 1, -1.6667E+01
1021, 1, -6.6667E+01
2021, 1, -3.3333E+01
3021, 1, -6.6667E+01
4021, 1, -3.3333E+01
5021, 1, -6.6667E+01
6021, 1, -3.3333E+01
7021, 1, -6.6667E+01
8021, 1, -3.3333E+01
9021, 1, -6.6667E+01
10021, 1, -3.3333E+01
11021, 1, -6.6667E+01
12021, 1, -3.3333E+01
13021, 1, -6.6667E+01
14021, 1, -3.3333E+01
15021, 1, -6.6667E+01
16021, 1, -3.3333E+01
17021, 1, -6.6667E+01
18021, 1, -3.3333E+01
19021, 1, -6.6667E+01
20021, 1, -1.6667E+01
***NY (TOP)
20001, 2, 0.0000E+00
20002, 2, 0.0000E+00
20003, 2, 0.0000E+00
20004, 2, 0.0000E+00
20005, 2, 0.0000E+00
20006, 2, 0.0000E+00
20007, 2, 0.0000E+00
20008, 2, 0.0000E+00
20009, 2, 0.0000E+00
20010, 2, 0.0000E+00
20011, 2, 0.0000E+00
20012, 2, 0.0000E+00
20013, 2, 0.0000E+00
20014, 2, 0.0000E+00
20015, 2, 0.0000E+00
20016, 2, 0.0000E+00
20017, 2, 0.0000E+00
20018, 2, 0.0000E+00
20019, 2, 0.0000E+00
20020, 2, 0.0000E+00
20021, 2, 0.0000E+00
***NX (LEFT)
1, 1, 1.6667E+01
1001, 1, 6.6667E+01
2001, 1, 3.3333E+01
3001, 1, 6.6667E+01
4001, 1, 3.3333E+01
5001, 1, 6.6667E+01
6001, 1, 3.3333E+01
7001, 1, 6.6667E+01
8001, 1, 3.3333E+01
9001, 1, 6.6667E+01
10001, 1, 3.3333E+01
11001, 1, 6.6667E+01
12001, 1, 3.3333E+01
13001, 1, 6.6667E+01
14001, 1, 3.3333E+01
15001, 1, 6.6667E+01
16001, 1, 3.3333E+01
17001, 1, 6.6667E+01
18001, 1, 3.3333E+01
19001, 1, 6.6667E+01
20001, 1, 1.6667E+01
***NY (BOTTOM)
1, 2, 0.0000E+00
2, 2, 0.0000E+00
3, 2, 0.0000E+00
4, 2, 0.0000E+00
5, 2, 0.0000E+00
6, 2, 0.0000E+00
7, 2, 0.0000E+00
8, 2, 0.0000E+00
9, 2, 0.0000E+00
10, 2, 0.0000E+00
11, 2, 0.0000E+00
12, 2, 0.0000E+00
13, 2, 0.0000E+00
14, 2, 0.0000E+00
15, 2, 0.0000E+00
16, 2, 0.0000E+00
17, 2, 0.0000E+00
18, 2, 0.0000E+00
19, 2, 0.0000E+00
20, 2, 0.0000E+00
21, 2, 0.0000E+00
***************************
***RUNNING LOADS - SHEAR***
***************************
***NXY (RIGHT)
21, 2, 0.0000E+00
1021, 2, 0.0000E+00
2021, 2, 0.0000E+00
3021, 2, 0.0000E+00
4021, 2, 0.0000E+00
5021, 2, 0.0000E+00
6021, 2, 0.0000E+00
7021, 2, 0.0000E+00
8021, 2, 0.0000E+00
9021, 2, 0.0000E+00
10021, 2, 0.0000E+00
11021, 2, 0.0000E+00
12021, 2, 0.0000E+00
13021, 2, 0.0000E+00
14021, 2, 0.0000E+00
15021, 2, 0.0000E+00
16021, 2, 0.0000E+00
17021, 2, 0.0000E+00
18021, 2, 0.0000E+00
19021, 2, 0.0000E+00
20021, 2, 0.0000E+00
***NXY (TOP)
20001, 1, 0.0000E+00
20002, 1, 0.0000E+00
20003, 1, 0.0000E+00
20004, 1, 0.0000E+00
20005, 1, 0.0000E+00
20006, 1, 0.0000E+00
20007, 1, 0.0000E+00
20008, 1, 0.0000E+00
20009, 1, 0.0000E+00
20010, 1, 0.0000E+00
20011, 1, 0.0000E+00
20012, 1, 0.0000E+00
20013, 1, 0.0000E+00
20014, 1, 0.0000E+00
20015, 1, 0.0000E+00
20016, 1, 0.0000E+00
20017, 1, 0.0000E+00
20018, 1, 0.0000E+00
20019, 1, 0.0000E+00
20020, 1, 0.0000E+00
20021, 1, 0.0000E+00
***NXY (LEFT)
1, 2, 0.0000E+00
1001, 2, 0.0000E+00
2001, 2, 0.0000E+00
3001, 2, 0.0000E+00
4001, 2, 0.0000E+00
5001, 2, 0.0000E+00
6001, 2, 0.0000E+00
7001, 2, 0.0000E+00
8001, 2, 0.0000E+00
9001, 2, 0.0000E+00
10001, 2, 0.0000E+00
11001, 2, 0.0000E+00
12001, 2, 0.0000E+00
13001, 2, 0.0000E+00
14001, 2, 0.0000E+00
15001, 2, 0.0000E+00
16001, 2, 0.0000E+00
17001, 2, 0.0000E+00
18001, 2, 0.0000E+00
19001, 2, 0.0000E+00
20001, 2, 0.0000E+00
***NXY (BOTTOM)
1, 1, 0.0000E+00
2, 1, 0.0000E+00
3, 1, 0.0000E+00
4, 1, 0.0000E+00
5, 1, 0.0000E+00
6, 1, 0.0000E+00
7, 1, 0.0000E+00
8, 1, 0.0000E+00
9, 1, 0.0000E+00
10, 1, 0.0000E+00
11, 1, 0.0000E+00
12, 1, 0.0000E+00
13, 1, 0.0000E+00
14, 1, 0.0000E+00
15, 1, 0.0000E+00
16, 1, 0.0000E+00
17, 1, 0.0000E+00
18, 1, 0.0000E+00
19, 1, 0.0000E+00
20, 1, 0.0000E+00
21, 1, 0.0000E+00
***************************
*****IN-PLANE MOMENTS******
***************************
***  NOTE THAT THESE ARE ADDED TO NX AND NY (IF THEY EXIST) ******
***  THEY DO NOT NEED TO COMINBED (THEY ARE SEPARATED FOR EASE OF INSPECTION) ******
************************************************************************************
***NXM (RIGHT)
***NXM (LEFT)
***NYM (TOP)
***NYM (BOTTOM)
*NODE PRINT, NSET = ALL
U
*NODE FILE
U
*EL FILE
S, E
*END STEP
