** Generated by Mecway 16.0
*NODE
1,0,0,1
2,0,0.1666666666667,1
3,0,0.3333333333333,1
4,0,0.5,1
5,0,0.6666666666667,1
6,0,0.8333333333333,1
7,0,1,1
8,0,1,0.8333333333333
9,0,1,0.6666666666667
10,0,1,0.5
11,0,1,0.3333333333333
12,0,1,0.1666666666667
13,0,1,0
14,1,1,0
15,1,0.8333333333333,0
16,1,0.6666666666667,0
17,1,0.5,0
18,1,0.3333333333333,0
19,1,0.1666666666667,0
20,1,0,0
** ... 180 like lines cut
*ELEMENT,TYPE=C3D4
1,92,198,81,182
2,120,189,117,114
3,80,187,84,83
4,11,12,159,77
5,92,81,78,182
6,163,189,168,148
7,98,101,199,103
8,170,177,178,200
9,177,120,200,189
10,197,179,190,176
11,137,133,184,190
12,179,113,176,123
13,195,181,167,188
14,110,189,117,120
15,79,176,179,197
16,55,144,163,148
17,86,79,179,197
18,115,189,151,196
19,55,163,144,54
20,186,96,142,88
** ... 539 like lines cut
*ELSET,ELSET=Default
1
2
3
4
5
6
7
8
9
10
11
12
13
14
15
16
17
18
19
20
** ... 539 like lines cut
*MATERIAL,NAME=Material
*ELASTIC,TYPE=ISOTROPIC
10000000,0.3
*SOLID SECTION,ELSET=Default,MATERIAL=Material
*STEP
*STATIC
*NODE FILE,GLOBAL=YES
U,RF
*EL FILE
S,E,ENER
*END STEP
