** Generated by Mecway 13.0
*NODE
1,0.041068511,0.00254,0
2,0.043206345,0.00254508,-0.001168408
3,0.06684455316444,0.00508,-0.03801213291113
4,0.065516000629,0.00508,-0.03594138273613
5,0.06401197889076,0.00508,-0.033597137255
6,0.06155541005163,0.00508,-0.02976820296915
7,0.05939964556016,0.00508,-0.02640811777954
8,0.05744441730044,0.00508,-0.02336059865407
9,0.05511318360617,0.00508,-0.01972701815832
10,0.05275688288293,0.00508,-0.01605436690455
11,0.05042564918866,0.00508,-0.0124207864088
12,0.04744267274115,0.00508,-0.007771366204556
13,0.04481063469923,0.00508,-0.003668936612579
14,0.06860826254757,0.00508,-0.04219148444399
15,0.03909926873254,0.00508,-0.02312112650327
16,0.041566798094,0.00508,-0.02536771015347
17,0.04501630342584,0.00508,-0.02850834239916
18,0.04796223133696,0.00508,-0.03119048818563
19,0.05040458182739,0.00508,-0.03341414751287
20,0.05274621683367,0.00508,-0.03554610954827
** ... 286 like lines cut
*ELEMENT,TYPE=C3D4
1,263,288,298,265
2,189,201,257,196
3,169,168,126,239
4,123,122,249,227
5,68,289,169,207
6,302,249,232,205
7,295,277,265,25
8,24,274,133,72
9,238,152,163,251
10,290,206,71,291
11,180,192,206,248
12,72,292,206,180
13,47,284,121,264
14,172,206,292,291
15,249,137,252,250
16,238,226,240,251
17,75,249,175,174
18,252,137,21,136
19,226,163,250,251
20,39,115,142,261
** ... 773 like lines cut
*NSET,NSET=force_nodes
46
47
48
49
283
284
*ELSET,ELSET=bracket_test
1
2
3
4
5
6
7
8
9
10
11
12
13
14
15
16
17
18
19
20
** ... 773 like lines cut
*MATERIAL,NAME=Material
*ELASTIC,TYPE=ISOTROPIC
10000000,0.3
*SOLID SECTION,ELSET=bracket_test,MATERIAL=Material
*BOUNDARY
31,1,,0
31,2,,0
31,3,,0
90,1,,0
90,2,,0
90,3,,0
277,1,,0
277,2,,0
277,3,,0
278,1,,0
278,2,,0
278,3,,0
294,1,,0
294,2,,0
294,3,,0
295,1,,0
295,2,,0
295,3,,0
*STEP
*CLOAD
** concentrated load
** node, dof, magnitude
46,3,16.66666666667
47,3,16.66666666667
48,3,16.66666666667
49,3,16.66666666667
283,3,16.66666666667
284,3,16.66666666667
*EL FILE
S
*END STEP
