$EXECUTIVE CONTROL DECK
SOL 101
CEND
$CASE CONTROL DECK
TITLE = TEST_CBEAM
ECHO = NONE
SUBCASE 1
  SUBTITLE = BENDING
  LOAD = 1000
$  SPC = 1
  DISPLACEMENT(SORT1,REAL) = ALL
  STRESS(SORT1,REAL,VONMISES,BILIN) = ALL
BEGIN BULK
PARAM       POST      -1
$NODES
$SPC            1     101  123456      0.
$GRID         101        -.028284     .05-.028284
GRID         101        -.028284     .05-.028284          123456
GRID         102         .018122     .05.0219076          123456
GRID         103        -.015529      .5-.057956
GRID         104        .0071104      .5.0420503          123456
GRID         105         -.00305      .9-.034867
GRID         106        -1.747-4      .9.0248769          123456
GRID         107         -3.49-4      1.-9.994-3
GRID         108        -4.218-4      1..0070953          123456
$ELEMENTS_WITH_PROPERTIES
$PBEAM       pid     mid    Area      I1      I2     I12       J     nsm
PBEAM        300     400.00187354.5866-6 8.148-8 -1.81-74.5757-6
              0.      0.      0.      0.      0.      0.      0.      0.
$BEAM        eid     pid      GA      GB      X1      X2      X3    OFFT
CBEAM        200     300     101     103     102
$LOAD1       lid     eid    Type   Scale      x1      p1      x2      p2
PLOAD1      1000     200      MX      FR      0.-3.672-4      1.-.736961
PLOAD1      1000     200      FX      FR      0.-.012801      1.-2.49241
$PBEAM       pid     mid    Area      I1      I2     I12       J     nsm
PBEAM        301     4006.3752-45.3495-77.3156-9-7.539-95.2929-7
              0.      0.      0.      0.      0.      0.      0.      0.
$BEAM        eid     pid      GA      GB      X1      X2      X3    OFFT
CBEAM        201     301     103     105     104
$LOAD1       lid     eid    Type   Scale      x1      p1      x2      p2
PLOAD1      1000     201      MX      FR      0.-.736961      1.-1.41497
PLOAD1      1000     201      FX      FR      0.-2.49241      1.-4.85612
$PBEAM       pid     mid    Area      I1      I2     I12       J     nsm
PBEAM        302     4005.2043-53.5668-94.583-11-5.02-11 3.544-9
              0.      0.      0.      0.      0.      0.      0.      0.
$BEAM        eid     pid      GA      GB      X1      X2      X3    OFFT
CBEAM        202     302     105     107     106
$LOAD1       lid     eid    Type   Scale      x1      p1      x2      p2
PLOAD1      1000     202      MX      FR      0.-1.41497      1.-1.28567
PLOAD1      1000     202      FX      FR      0.-4.85612      1.-4.50471
$MATERIALS
$MAT1        mid       E       G      nu
MAT1         400    1.+7              .3
ENDDATA
