$
$ part2.dat
$
CQUAD4	43	1	39	40	52	51
CQUAD4	44	1	40	41	53	52
CQUAD4	45	1	41	42	54	53
CQUAD4	46	1	42	43	55	54
CQUAD4	47	1	43	44	56	55
CQUAD4	48	1	51	52	64	63
CQUAD4	49	1	52	53	65	64
CQUAD4	50	1	53	54	66	65
CQUAD4	51	1	54	55	67	66
CQUAD4	52	1	55	56	68	67
CQUAD4	53	1	63	64	76	75
CQUAD4	54	1	64	65	77	76
CQUAD4	55	1	65	66	78	77
CQUAD4	56	1	66	67	79	78
CQUAD4	57	1	67	68	80	79
CQUAD4	58	1	75	76	88	87
CQUAD4	59	1	76	77	89	88
CQUAD4	60	1	77	78	90	89
CQUAD4	61	1	78	79	91	90
CQUAD4	62	1	79	80	92	91
$ ... 5 like lines cut
$
$		cp	a	b	c	cd	ps	seid
GRDSET							6
$
$ boundary grids
$
GRID	41		2.8	6.	0.
GRID	42		3.6	6.	0.
$
GRID	39		1.2	6.	0.
GRID	40		2.	6.	0.
GRID	43		4.4	6.	0.
GRID	44		5.2	6.	0.
$
GRID	51		1.2	6.8	0.
GRID	52		2.	6.8	0.
GRID	53		2.8	6.8	0.
GRID	54		3.6	6.8	0.
GRID	55		4.4	6.8	0.
GRID	56		5.2	6.8	0.
GRID	63		1.2	7.6	0.
GRID	64		2.	7.6	0.
GRID	65		2.8	7.6	0.
GRID	66		3.6	7.6	0.
GRID	67		4.4	7.6	0.
GRID	68		5.2	7.6	0.
GRID	75		1.2	8.4	0.
GRID	76		2.	8.4	0.
GRID	77		2.8	8.4	0.
GRID	78		3.6	8.4	0.
GRID	79		4.4	8.4	0.
GRID	80		5.2	8.4	0.
GRID	87		1.2	9.2	0.
GRID	88		2.	9.2	0.
$ ... 10 like lines cut
$
MAT1,1,30.+6,,.3,.283
PARAM,WTMASS,.00259
PARAM,AUTOSPC,YES
PSHELL,1,1,.05,1,,1
