CQUAD4	18	1	33	34	46	45
CQUAD4	19	1	34	35	47	46
CQUAD4	20	1	35	36	48	47
CQUAD4	21	1	36	37	49	48
CQUAD4	22	1	37	38	50	49
CQUAD4	23	1	45	46	58	57
CQUAD4	24	1	46	47	59	58
CQUAD4	25	1	47	48	60	59
CQUAD4	26	1	48	49	61	60
CQUAD4	27	1	49	50	62	61
CQUAD4	28	1	57	58	70	69
CQUAD4	29	1	58	59	71	70
CQUAD4	30	1	59	60	72	71
CQUAD4	31	1	60	61	73	72
CQUAD4	32	1	61	62	74	73
CQUAD4	33	1	69	70	82	81
CQUAD4	34	1	70	71	83	82
CQUAD4	35	1	71	72	84	83
CQUAD4	36	1	72	73	85	84
CQUAD4	37	1	73	74	86	85
$ ... 5 like lines cut
$
$		cp	a	b	c	cd	ps	seid
GRDSET							6
$
$ boundary grids
$
GRID	35		-3.6	6.	0.
GRID	36		-2.8	6.	0.
$
GRID	33		-5.2	6.	0.
GRID	34		-4.4	6.	0.
GRID	37		-2.	6.	0.
GRID	38		-1.2	6.	0.
$
GRID	45		-5.2	6.8	0.
GRID	46		-4.4	6.8	0.
GRID	47		-3.6	6.8	0.
GRID	48		-2.8	6.8	0.
GRID	49		-2.	6.8	0.
GRID	50		-1.2	6.8	0.
GRID	57		-5.2	7.6	0.
GRID	58		-4.4	7.6	0.
GRID	59		-3.6	7.6	0.
GRID	60		-2.8	7.6	0.
GRID	61		-2.	7.6	0.
GRID	62		-1.2	7.6	0.
GRID	69		-5.2	8.4	0.
GRID	70		-4.4	8.4	0.
GRID	71		-3.6	8.4	0.
GRID	72		-2.8	8.4	0.
GRID	73		-2.	8.4	0.
GRID	74		-1.2	8.4	0.
GRID	81		-5.2	9.2	0.
GRID	82		-4.4	9.2	0.
$ ... 10 like lines cut
$
MAT1,1,30.+6,,.3,.283
PARAM,WTMASS,.00259
PARAM,AUTOSPC,YES
PSHELL,1,1,.05,1,,1
