$
$
$ $ Created by MSC Apex Version 2021.1 on May 04, 2021 at 18:13:16
$
$ Values exported in this file are expressed using the consistent SI_K unit
$ system
$   Length m
$   Mass kg
$   Time s
$   Force N
$   Temperature K
$ NOTE: Nastran requires the following angle values always be defined in
$ degrees, while all other rotational quantities will be defined in terms of
$ radians
$ PCOMPG  (THETAi - ply orientation angle)
$ TABLED1 (yi - phase angle data when referenced in TP field of RLOAD2)
$
$ Linear Static Scenario Static Scenario 1
$ Scenario description
SOL 101
CEND
$
$ Output Requests
$
$ Displacement
DISP(PLOT) = ALL
$ Element Stress
STRESS(PLOT,VONMISES,CORNER) = ALL
$ Applied Loads
OLOAD(PLOT) = ALL
$ SPC Forces
SPCFORCES(PLOT) = ALL
$ Grid Point Force
GPFORCE(PLOT) = ALL
PARAM,AUTOMSET,YES
$ Automatic Stiffness Singularity Constraints
AUTOSPC(NOPRINT) = YES
$ Attachment Forces
MPCFORCES(SORT1,PLOT) = ALL
PARAM,PRTMAXIM,YES
PARAM,POST,1
$ Event name: Event 1
$ Event description:
SUBCASE 1
 SUBTITLE=Event 1
 SPC = 4
 LOAD = 1
BEGIN BULK
$
$
$ Part Part_1
$
$       2       3       4       5       6       7       8       9      0
$
$
$ Bushing: Connector 1
CBUSH   129     2       251     252                             3
CHEXA   1       1       5       17      1       4       35      99      +
+       69      60
CHEXA   2       1       6       18      17      5       36      102     +
+       99      35
CHEXA   3       1       7       19      18      6       37      105     +
+       102     36
CHEXA   4       1       8       9       19      7       38      45      +
+       105     37
CHEXA   5       1       17      20      2       1       99      108     +
+       68      69
CHEXA   6       1       18      21      20      17      102     111     +
+       108     99
CHEXA   7       1       19      22      21      18      105     114     +
+       111     102
CHEXA   8       1       9       10      22      19      45      48      +
+       114     105
CHEXA   9       1       20      23      3       2       108     117     +
+       67      68
CHEXA   10      1       21      24      23      20      111     120     +
+       117     108
CHEXA   11      1       22      25      24      21      114     123     +
+       120     111
CHEXA   12      1       10      11      25      22      48      51      +
+       123     114
CHEXA   13      1       23      16      13      3       117     87      +
+       78      67
CHEXA   14      1       24      15      16      23      120     84      +
+       87      117
CHEXA   15      1       25      14      15      24      123     81      +
+       84      120
CHEXA   16      1       11      12      14      25      51      72      +
+       81      123
CHEXA   17      1       35      99      69      60      32      100     +
+       66      59
CHEXA   18      1       36      102     99      35      33      103     +
+       100     32
CHEXA   19      1       37      105     102     36      34      106     +
+       103     33
CHEXA   20      1       38      45      105     37      39      46      +
+       106     34
$ ... 216 like lines cut
$  Integrated Coordinate System (Connector 1)
CORD2R  3               0.      0.      0.      0.      -1.     0.      +
+       0.      0.      -1.
$  Integrated Coordinate System (Constraint 2)
CORD2R  4               0.      0.      0.      -1.     0.      0.      +
+       0.      0.      -1.
$  Integrated Coordinate System (Constraint 3)
CORD2R  5               0.      0.      0.      -1.     0.      0.      +
+       0.      0.      -1.
$ Grav: Gravity 1
GRAV    1               9.80665 0.      0.      -1.
GRID    1               .2      0.      .4625313
GRID    2               .2      0.      .4125213
GRID    3               .2      0.      .3625113
GRID    4               .2      0.      .5125313
GRID    5               .2      .05     .5125313
GRID    6               .2      .10001  .5125313
GRID    7               .2      .15002  .5125313
GRID    8               .2      .2      .51253135
GRID    9               .2      .2      .46253135
GRID    10              .2      .2      .41252135
GRID    11              .2      .2      .36251135
GRID    12              .2      .2      .31253135
GRID    13              .2      0.      .3125313
GRID    14              .2      .15     .3125313
GRID    15              .2      .09999  .3125313
GRID    16              .2      .04998  .3125313
GRID    17              .2      .049995 .4625313
GRID    18              .2      .100005 .4625313
GRID    19              .2      .150015 .4625313
GRID    20              .2      .04999  .4125213
$ ... 232 like lines cut
$ Material Record: Aluminum_ENAW_5086-H112_(SHEET)
MAT1    1       7.2+10          .33     2660.
$ Connector properties for Bushing: Connector 1
PBUSH   2       K       100000. 200000. 300000. .15     .25     .35     +
+               B       1000.   2000.   3000.   .0015   .0025   .0035
$ Elements and Element Properties for Body: Mesh_1
PSOLID  1       1
RBE3    130             251     123456  1.      123     12      13      +
+       14      15      16      70      71      72      73      74      +
+       75      76      77      78      79      80      81      82      +
+       83      84      85      86      87      88      89
RBE3    131             252     123456  1.      123     129     130     +
+       131     132     133     151     152     153     154     155     +
+       156     157     158     159     160     161     162     163     +
+       164     165     166     182     183     184     185
$ Constraint: Constraint_definition
SPC     1       137     123456
SPC     1       138     123456
SPC     1       139     123456
SPC     1       140     123456
SPC     1       141     123456
SPC     1       195     123456
SPC     1       196     123456
SPC     1       197     123456
SPC     1       198     123456
SPC     1       199     123456
SPC     1       200     123456
SPC     1       201     123456
SPC     1       202     123456
SPC     1       203     123456
SPC     1       204     123456
SPC     1       205     123456
SPC     1       206     123456
SPC     1       207     123456
SPC     1       208     123456
SPC     1       209     123456
$ ... 5 like lines cut
$ Constraint: Constraint_definition (2)
SPC     2       26      345
SPC     2       27      345
SPC     2       28      345
SPC     2       41      345
SPC     2       42      345
SPC     2       43      345
SPC     2       44      345
SPC     2       54      345
SPC     2       55      345
SPC     2       56      345
SPC     2       57      345
SPC     2       73      345
SPC     2       74      345
SPC     2       75      345
SPC     2       76      345
SPC     2       77      345
SPC     2       90      345
SPC     2       91      345
SPC     2       92      345
SPC     2       93      345
$ ... 5 like lines cut
$ Constraint: Constraint_definition (3)
SPC     3       8       345
SPC     3       9       345
SPC     3       10      345
SPC     3       11      345
SPC     3       12      345
SPC     3       38      345
SPC     3       39      345
SPC     3       40      345
SPC     3       41      345
SPC     3       42      345
SPC     3       43      345
SPC     3       44      345
SPC     3       45      345
SPC     3       46      345
SPC     3       47      345
SPC     3       48      345
SPC     3       49      345
SPC     3       50      345
SPC     3       51      345
SPC     3       52      345
$ ... 5 like lines cut
$ This constraint collection references the following Constraints
$ 1- Constraint Constraint 1
$ 2- Constraint Constraint 2
$ 3- Constraint Constraint 3
SPCADD  4       1       2       3
MDLPRM  OFFDEF  LROFF
PARAM   WTMASS  1.
ENDDATA
