*KEYWORD
*TITLE
THOR-LX 50% Male Dummy - mm, sec, metric-tons (Mgr)
$$ HM_OUTPUT_DECK created 18:49:03 11-19-2003 by HyperMesh Version 6.0
$$ Ls-dyna Input Deck Generated by HyperMesh Version  : 6.0
$$ Generated using HyperMesh-Ls-dyna Template Version : 6.0
*CONTROL_TERMINATION
$$  ENDTIM    ENDCYC     DTMIN    ENDENG    ENDMAS
     0.120         0       0.0       0.0       0.0
*CONTROL_TIMESTEP
$$  DTINIT    TSSFAC      ISDO    TSLIMT     DT2MS      LCTM     ERODE     MSIST
       0.0       0.9
*CONTROL_SHELL
$$  WRPANG     ESORT     IRNXX    ISTUPD    THEORY       BWC     MITER      PROJ
      20.0         1        -1         0         2         2         1         0
*CONTROL_CONTACT
$$  SLSFAC    RWPNAL    ISLCHK    SHLTHK    PENOPT    THKCHG     ORIEN    ENMASS
       0.1       1.0         2         2         1         0         2         0
$$  USRSTR    USRFRC     NSBCS    INTERM     XPENE     SSTHK      ECDT   TIEDPRJ
         0         0                           4.0         0         0         0
*CONTROL_PARALLEL
$$    NCPU    NUMRHS      ACCU
         1                   1
*CONTROL_OUTPUT
$$   NPOPT    NEECHO    NREFUP    IACCOP     OPIFS    IPNINT    IKEDIT
         1         3         0         0       0.0         0
*CONTROL_ENERGY
$$    HGEN      RWEN    SLNTEN     RYLEN
         2         2         2         2
$$DATABASE_OPTION -- Control Cards for ASCII output
*DATABASE_SECFORC
1.0000E-04
*DATABASE_NODOUT
1.0000E-04
*DATABASE_ELOUT
1.0000E-04
*DATABASE_GLSTAT
5.0000E-04
*DATABASE_DEFORC
1.0000E-04
*DATABASE_MATSUM
5.0000E-04
*DATABASE_RCFORC
1.0000E-04
*DATABASE_SLEOUT
1.0000E-04
*DATABASE_JNTFORC
1.0000E-04
*DATABASE_SBTOUT
1.0000E-04
*DATABASE_BINARY_D3PLOT
$$ DT/CYCL      LCDT      BEAM     NPLTC
     0.002         0         0
*DATABASE_EXTENT_BINARY
$$   NEIPH     NEIPS    MAXINT    STRFLG    SIGFLG    EPSFLG    RLTFLG    ENGFLG
                             3         0         1         1         1         1
$$  CMPFLG    IEVERP    BEAMIP     DCOMP      SHGE     STSSZ    N3THDT
         0         1         3                                       1
*DEFINE_COORDINATE_NODES
    500001    508001    508002    508003         0
    500002    508004    508005    508006         0
    500003    508007    508008    508009
    500008    508010    508011    508012
    500004    508013    508014    508015         0
    500005    508016    508017    508018         0
    500006    500584    500581    500587         0
    500007    500564    500561    500563         0
    500009    507005    500772    501004         0
    500010    505687    505690    505693         0
    500011    501556    501555    501557         0
*NODE
  500001538.533945272681-125.07786367224 172.61034301638
  500002538.533945272682-125.07745367224 162.57254301638
  500003538.533945272681-125.07701367224 152.53464301638
  500004538.533945272682-125.07658367224 142.49684301638
  500005538.533945272682-125.07615367224 132.45914301638
  500006538.533945272682-125.07571367224 122.42134301638
  500007538.533945272682-125.07531367224 112.38354301638
  500008538.533945272682-125.07488367224 102.34574301638
  500009545.944075272682-125.07385367224 102.34574301638
  500010553.354215272682-125.07282367224 102.34574301638
  500011560.764325272682-125.07179367224 102.34574301638
  500012560.762495272682-125.07219367224 111.61664301638
  500013560.760655272682-125.07257367224 120.88774301638
  500014560.758825272682-125.07298367224 130.15864301638
  500015552.510015272682-125.07432367224 134.92124301638
  500016552.509785272682-125.07472367224 144.44624301638
  500017560.758825272682-125.07380367224 149.20864301638
  500018560.758415272682-125.07419367224 158.92394301638
  500019560.758035272682-125.07459367224 168.63904301638
  500020555.258985272682-125.07551367224 171.81424301638
$ ... 7577 like lines cut
*MAT_ELASTIC
$HMNAME MATS  500002MAT1_ureth_foam_foot
    5000024.9240E-10     100.0       0.3       0.0       0.0       0.0
*MAT_VISCOELASTIC
$HMNAME MATS  500014MAT6_neoprn50a_heel_padding
    5000141.0807E-09     160.0       1.0       0.5     700.0
*MAT_RIGID
$HMNAME MATS  500003MAT20_440C_StnlessStl_plunger
    5000037.8300E-09  207000.0       0.3       0.0       0.0       0.0
       1.0         0         0
    500009
*MAT_RIGID
$HMNAME MATS  500004MAT20_6061_T6
    5000042.7100E-09   69000.0      0.33       0.0       0.0       0.0
       1.0         0         0
       0.0       0.0       0.0       0.0       0.0       0.0
*MAT_RIGID
$HMNAME MATS  500005MAT20_7075_T6
    5000052.8100E-09   72000.0      0.33       0.0       0.0       0.0
       1.0         0         0
       0.0       0.0       0.0       0.0       0.0       0.0
*MAT_RIGID
$HMNAME MATS  500006MAT20_DELRIN_potenmtr_covers
    5000061.5000E-09    3100.0      0.35       0.0       0.0       0.0
       1.0         0         0
       0.0       0.0       0.0       0.0       0.0       0.0
*MAT_RIGID
$HMNAME MATS  500007MAT20_RGD77_6061_T6_knclevis
    5000072.7100E-09   69000.0      0.33       0.0       0.0       0.0
       1.0         7         7
       0.0       0.0       0.0       0.0       0.0       0.0
*MAT_RIGID
$HMNAME MATS  500008MAT20_carbonfib_epoxy_sole
    5000082.0000E-09   50000.0       0.3       0.0       0.0       0.0
       1.0         0         0
       0.0       0.0       0.0       0.0       0.0       0.0
*MAT_RIGID
$HMNAME MATS  500009MAT20_neoprn75a_ankle_softstops
    5000091.0000E-09     14.52      0.45       0.0       0.0       0.0
       1.0         0         0
       0.0       0.0       0.0       0.0       0.0       0.0
*MAT_RIGID
$HMNAME MATS  500010MAT20_rgdzed_uretnane_guards
    5000101.0500E-09    5000.0       0.3       0.0       0.0       0.0
       1.0         0         0
       0.0       0.0       0.0       0.0       0.0       0.0
*MAT_RIGID
$HMNAME MATS  500011MAT20_steel
    5000117.8300E-09  207000.0       0.3       0.0       0.0       0.0
       1.0         0         0
       0.0       0.0       0.0       0.0       0.0       0.0
*MAT_RIGID
$HMNAME MATS  500012MAT20_steel_lwr_tibldcll
    5000127.8300E-09  207000.0       0.3       0.0       0.0       0.0
       1.0         0         0
    500006
*MAT_RIGID
$HMNAME MATS  500013MAT20_steel_upr_tibldcll
    5000137.8300E-09  207000.0       0.3       0.0       0.0       0.0
       1.0         0         0
    500007
*MAT_SPRING_MAXWELL
$HMNAME MATS  500016MATSD7_tibia_viscoelstc_spring
    500016    1000.0     200.0    1000.0       0.0       0.0       0.0
*MAT_SEATBELT
$HMNAME MATS  500015MATSB_Achilles_SB
    5000153.4843E-08    500007    500008     0.194
*PART
$HMNAME COMPS  500001Knee_Clevis_LH
$HMCOLOR COMPS  500001       6

    500001    500006    500007         0         0         0                   0
*CONSTRAINED_RIGID_BODIES
    500001    500002
    500001    500003
*PART
$HMNAME COMPS  500002Molded_Knee_Bumper_LH
$HMCOLOR COMPS  500002       4

    500002    500006    500010         0         0         0                   0
$HMNAME COMPS  500003upr_Tibia_LoadCell1_LH
$HMCOLOR COMPS  500003      12

    500003    500006    500013         0         0         0                   0
$HMNAME COMPS  500004upr_Tibia_LoadCell2_LH
$HMCOLOR COMPS  500004       9

    500004    500006    500011         0         0         0                   0
$HMNAME COMPS  500005upr_Tibia_Tube_LH
$HMCOLOR COMPS  500005       6

    500005    500006    500005         0         0         0                   0
$HMNAME COMPS  500006Tibia_Comp_Bush_Plunger_LH
$HMCOLOR COMPS  500006       8

    500006    500006    500003         0         0         0                   0
*CONSTRAINED_RIGID_BODIES
    500006    500004
    500006    500005
*PART
$HMNAME COMPS  500007Tibia_Bushing_Spring_LH
$HMCOLOR COMPS  500007      12

    500007    500004    500016         0         0         0                   0
$HMNAME COMPS  500008Tibia_Comp_Bush_lwr_Flange_LH
$HMCOLOR COMPS  500008      10

    500008    500006    500004         0         0         0                   0
*CONSTRAINED_RIGID_BODIES
    500008    500009
    500008    500010
    500008    500011
    500008    500012
    500008    500013
    500008    500036
    500008    500037
    500008    500038
*PART
$HMNAME COMPS  500009lwr_Tibia_Tube_LH
$HMCOLOR COMPS  500009       6

    500009    500006    500005         0         0         0                   0
$HMNAME COMPS  500010Tibia_TriAxial_Mountng_Plate_LH
$HMCOLOR COMPS  500010       6

    500010    500006    500004         0         0         0                   0
$HMNAME COMPS  500011Tibia_TriAxial_Accelerometer_LH
$HMCOLOR COMPS  500011      12

    500011    500006    500011         0         0         0                   0
$HMNAME COMPS  500012Tibia_Guard_LH
$HMCOLOR COMPS  500012       4

    500012    500006    500010         0         0         0                   0
$HMNAME COMPS  500013lwr_Tibia_LoadCell1_LH
$HMCOLOR COMPS  500013      12

    500013    500006    500012         0         0         0                   0
$HMNAME COMPS  500014lwr_Tibia_LoadCell2_LH
$HMCOLOR COMPS  500014       9

    500014    500006    500011         0         0         0                   0
$HMNAME COMPS  500015top_Torque_Base_LH
$HMCOLOR COMPS  500015       6

    500015    500006    500004         0         0         0                   0
*CONSTRAINED_RIGID_BODIES
    500015    500016
    500015    500017
    500015    500018
    500015    500024
    500015    500026
    500015    500035
*PART
$HMNAME COMPS  500016Dorsi_Plantar_SoftStop_Base_LH
$HMCOLOR COMPS  500016       4

    500016    500006    500004         0         0         0                   0
$HMNAME COMPS  500017Dorsi_Plantar_Soft_Stop_LH
$HMCOLOR COMPS  500017       8

    500017    500006    500009         0         0         0                   0
$HMNAME COMPS  500018top_Torque_Base_Cap_LH
$HMCOLOR COMPS  500018       9

    500018    500006    500004         0         0         0                   0
$HMNAME COMPS  500019Torque_Base_CenterBlock_LH
$HMCOLOR COMPS  500019      12

    500019    500006    500004         0         0         0                   0
$HMNAME COMPS  500020Eversion_Inversion_SoftStop_LH
$HMCOLOR COMPS  500020       8

    500020    500006    500009         0         0         0                   0
$HMNAME COMPS  500021Evers_Invers_SoftStop_Base_LH
$HMCOLOR COMPS  500021       4

    500021    500006    500004         0         0         0                   0
$HMNAME COMPS  500022btm_Torque_Base_Cap_LH
$HMCOLOR COMPS  500022       9

    500022    500006    500004         0         0         0                   0
$HMNAME COMPS  500023btm_Torque_Base_LH
$HMCOLOR COMPS  500023       6

    500023    500006    500004         0         0         0                   0
$HMNAME COMPS  500024side_Ankle_Bushing_Plates_LH
$HMCOLOR COMPS  500024      10

    500024    500006    500004         0         0         0                   0
$HMNAME COMPS  500025fraft_Ankle_Bushing_Plates_LH
$HMCOLOR COMPS  500025      10

    500025    500006    500004         0         0         0                   0
$HMNAME COMPS  500026side_Ankle_PotentiomtrCover_LH
$HMCOLOR COMPS  500026       4

    500026    500006    500006         0         0         0                   0
$HMNAME COMPS  500027frnt_Ankle_PotentiomtrCover_LH
$HMCOLOR COMPS  500027       4

    500027    500006    500006         0         0         0                   0
$HMNAME COMPS  500028Foot_Composite_Sole_LH
$HMCOLOR COMPS  500028       8

    500028    500006    500008         0         0         0                   0
*CONSTRAINED_RIGID_BODIES
    500028    500020
    500028    500021
    500028    500022
    500028    500023
    500028    500033
    500028    500025
    500028    500027
    500028    500030
    500028    500031
    500028    500034
*PART
$HMNAME COMPS  500029Heel_Padding_LH
$HMCOLOR COMPS  500029      13

    500029    500006    500014         0    500005         0                   0
$HMNAME COMPS  500030Foot_TriAxial_Mountng_Plate_LH
$HMCOLOR COMPS  500030       6

    500030    500006    500004         0         0         0                   0
$HMNAME COMPS  500031Foot_TriAccelerometer_LH
$HMCOLOR COMPS  500031      12

    500031    500006    500005         0         0         0                   0
$HMNAME COMPS  500032Foot_LH
$HMCOLOR COMPS  500032       6

    500032    500006    500002         0    500005         0                   0
$HMNAME COMPS  500033Achilles_Heel_Mountng_Post_LH
$HMCOLOR COMPS  500033      14

    500033    500006    500004         0         0         0                   0
$HMNAME COMPS  500034Achilles_lwr_Mountng_Post_LH
$HMCOLOR COMPS  500034      14

    500034    500006    500004         0         0         0                   0
$HMNAME COMPS  500035Achilles_Pulley_LH
$HMCOLOR COMPS  500035      14

    500035    500006    500011         0         0         0                   0
$HMNAME COMPS  500036Achilles_Spring_Tube_Base_LH
$HMCOLOR COMPS  500036      14

    500036    500006    500005         0         0         0                   0
$HMNAME COMPS  500037Achilles_Spring_Tube_LH
$HMCOLOR COMPS  500037      14

    500037    500006    500004         0         0         0                   0
$HMNAME COMPS  500038Achilles_Retaining_Nut_LH
$HMCOLOR COMPS  500038      14

    500038    500006    500011         0         0         0                   0
$HMNAME COMPS  500039Achilles_Cable1_LH
$HMCOLOR COMPS  500039      10

    500039    500007    500015         0         0         0                   0
$HMNAME COMPS  500040Achilles_Cable2_LH
$HMCOLOR COMPS  500040       4

    500040    500007    500015         0         0         0                   0
*SECTION_SEATBELT
$HMNAME PROPS  500007STBLT_Achilles_cable
    500007
*SECTION_DISCRETE
$HMNAME PROPS  500004DSCRT_DRo0_tibia_spring
    500004         0       0.0       0.0       0.0       0.0
       0.0       0.0
*SECTION_SOLID
$HMNAME PROPS  500006SLD_EF1
    500006         1
*HOURGLASS
$HMNAME PROPS  500005HG5_QM01
    500005         5      0.01         0       1.5      0.06       0.0       0.0
*CONSTRAINED_JOINT_STIFFNESS_GENERALIZED
$HMNAME PROPS  500001CJSG_dorsi_plantar_LH
    500001    500024    500019    500001    500002
         0    500006         0         0    500003         0
       0.0       0.0       0.0       0.0       0.0       0.0
       0.0       0.0       0.0       0.0       0.0       0.0
*CONSTRAINED_JOINT_STIFFNESS_GENERALIZED
$HMNAME PROPS  500002CJSG_eversion_inversion_LH
    500002    500025    500019    500003    500008
    500002         0         0    500005         0         0
       0.0       0.0       0.0       0.0       0.0       0.0
       0.0       0.0       0.0       0.0       0.0       0.0
*CONSTRAINED_JOINT_STIFFNESS_GENERALIZED
$HMNAME PROPS  500003CJSG_lateral_medial_LH
    500003    500015    500014    500004    500005
         0         0    500001         0         0    500004
       0.0       0.0       0.0       0.0       0.0       0.0
       0.0       0.0       0.0       0.0       0.0       0.0
*CONTACT_AUTOMATIC_SURFACE_TO_SURFACE
$HMNAME GROUPS  500001AS2S_heel_padding_LH
$HMCOLOR GROUPS  500001       9
$HMFLAG GROUPS SLAVE MASTER
         2         3         0         0         0         0
       0.4       0.4                                       1
       1.0       1.0
*SET_SEGMENT
         2
    506089    506005    505601    506084
    506084    505601    506228    506075
    506230    505604    506092    506099
    506010    506128    506006    505605
    505626    505958    506120    505619
    505619    506120    505899    506006
    505628    506048    506136    506076
    506156    506172    506048    505628
    505618    506156    505628    506237
    505954    506054    506103    505637
    505978    506049    505646    505656
    505656    505646    506068    506059
    506060    505998    505649    505648
    505648    505649    505999    505921
    505998    506160    505650    505649
    505649    505650    506102    505999
    505650    505655    505976    506102
    506160    506007    505655    505650
    505655    505656    506059    505976
$ ... 173 like lines cut
*SET_SEGMENT
         3
    510429    510509    510510    510510
    510511    510461    510422    510422
    510578    510712    510110    510105
    510733    510578    510105    510108
    510467    510457    510578    510733
    510674    510586    510123    510127
    510586    510737    510124    510123
    510436    510438    510737    510586
    510462    510507    510734    510642
    510463    510462    510642    510736
    510434    510436    510586    510674
    510677    510674    510127    510330
    510430    510434    510674    510677
    510431    510430    510677    510721
    510393    510427    510752    510711
    510457    510390    510712    510578
    510712    510711    510298    510110
    510390    510393    510711    510712
    510721    510677    510330    510091
$ ... 31 like lines cut
*CONSTRAINED_EXTRA_NODES_SET
$HMNAME GROUPS  500002XN2RB_AchillesHeelMntngPst1_LH
$HMCOLOR GROUPS  500002       5
$HMFLAG GROUPS SLAVE
    500033    500006
*SET_NODE_LIST
    500006
    510760    510747    510739    510738    510735    510732    510716    510715
    510714    510662    510661    510658    510649    510571    510761    510981
    510570    510572    510977    510982
*CONSTRAINED_EXTRA_NODES_SET
$HMNAME GROUPS  500003XN2RB_AchillesHeelMntngPst2_LH
$HMCOLOR GROUPS  500003       5
$HMFLAG GROUPS SLAVE
    500033    500007
*SET_NODE_LIST
    500007
    506109    506110    506111    506117    506118    506122    506123    506129
    506131    506132    506134    506152    506153    506167    506168    506169
    506170    506171    506187    506188    506189    506190    506191    506192
    506198    506199    506204    506205    506206    506207    506108    506107
    506001    505997    505995    505994    505980    505973    505971    505959
    505957    505955    505953    505951    505949    505947    505945    505943
    505941    505939    505937    505935    505933    505931    505930    505928
    505927    505926    505923    505916    505914    505910    505907    505906
    505903    505902    505901    505898    505897    505894    505891    505890
    505887    505886    505878    505876    505871    505870    505867    505866
    505863    505856    505854    505654    505652    505645    505643    505634
    505632    505615    505611    505610    505608    505607    505606    505603
    505599    505598    505591
*CONSTRAINED_EXTRA_NODES_NODE
$HMNAME GROUPS  500004XN2RB_Achillessprng_tubbase_LH
$HMCOLOR GROUPS  500004       5
$HMFLAG GROUPS SLAVE
    500036    507502
*CONSTRAINED_EXTRA_NODES_SET
$HMNAME GROUPS  500005XN2RB_sole_LH
$HMCOLOR GROUPS  500005       5
$HMFLAG GROUPS SLAVE
    500028    500008
*SET_NODE_LIST
    500008
    510071    510077    510079    510081    510082    510083    510084    510085
    510086    510087    510088    510089    510090    510091    510092    510093
    510100    510101    510103    510105    510108    510110    510111    510114
    510115    510118    510121    510123    510124    510127    510245    510246
    510247    510248    510249    510250    510251    510252    510253    510254
    510255    510257    510258    510260    510264    510266    510269    510271
    510272    510273    510274    510275    510276    510277    510278    510279
    510280    510281    510282    510283    510284    510285    510286    510287
    510288    510289    510290    510291    510292    510293    510294    510295
    510298    510299    510300    510301    510302    510303    510304    510305
    510306    510307    510308    510309    510310    510311    510312    510313
    510314    510316    510317    510320    510330    510334    510336    510337
    510339    510340    510342    510349    510354    510355    510357    510359
    510361    510363    510500    510557    510562    510563    510564    510565
    510566    510567    510763    510764    510766    510768    510770    510772
    510775    510780    510797    510798    510799    510800    510801    510802
    510803    510805    510806    510807    510815    510816    510817    510818
    510819    510820    510821    510822    510823    510824    510825    510826
    510827    510828    510829    510830    510831    510832    510833    510834
$ ... 5 like lines cut
*CONSTRAINED_EXTRA_NODES_SET
$HMNAME GROUPS  500008XN2RB_JNT_dorsiA_sdBplates_LH
$HMCOLOR GROUPS  500008      10
$HMFLAG GROUPS SLAVE
    500024    500009
*SET_NODE_LIST
    500009
    507011    507012    508001    508002    508003
*CONSTRAINED_EXTRA_NODES_SET
$HMNAME GROUPS  500009XN2RB_JNT_dorsiB_TqBsCntrblk_LH
$HMCOLOR GROUPS  500009      12
$HMFLAG GROUPS SLAVE
    500019    500010
*SET_NODE_LIST
    500010
    507023    507024    508004    508005    508006
*CONSTRAINED_EXTRA_NODES_SET
$HMNAME GROUPS  500010XN2RB_JNT_evrsA_faBshngPlts_LH
$HMCOLOR GROUPS  500010      10
$HMFLAG GROUPS SLAVE
    500025    500011
*SET_NODE_LIST
    500011
    507013    507014    508007    508008    508009
*CONSTRAINED_EXTRA_NODES_SET
$HMNAME GROUPS  500011XN2RB_JNT_evrsB_TqBsCntrblk_LH
$HMCOLOR GROUPS  500011      12
$HMFLAG GROUPS SLAVE
    500019    500012
*SET_NODE_LIST
    500012
    507015    507016    508010    508011    508012
*CONSTRAINED_EXTRA_NODES_SET
$HMNAME GROUPS  500012XN2RB_JNT_latA_tpTrquBase_LH
$HMCOLOR GROUPS  500012      10
$HMFLAG GROUPS SLAVE
    500015    500013
*SET_NODE_LIST
    500013
    507019    507020    508013    508014    508015
*CONSTRAINED_EXTRA_NODES_SET
$HMNAME GROUPS  500013XN2RB_JNT_latB_lwrTibLdcl2_LH
$HMCOLOR GROUPS  500013      12
$HMFLAG GROUPS SLAVE
    500014    500014
*SET_NODE_LIST
    500014
    507021    508016    508017    508018
*CONSTRAINED_EXTRA_NODES_NODE
$HMNAME GROUPS  500019XN2RB_JNT_lockB_lwrTibLdcl2_LH
$HMCOLOR GROUPS  500019      12
$HMFLAG GROUPS SLAVE
    500014    507002
*CONSTRAINED_EXTRA_NODES_SET
$HMNAME GROUPS  500014XN2RB_JNT_transA_bshngPlngr_LH
$HMCOLOR GROUPS  500014      10
$HMFLAG GROUPS SLAVE
    500006    500015
*SET_NODE_LIST
    500015
    507005    507006    507025
*CONSTRAINED_EXTRA_NODES_SET
$HMNAME GROUPS  500015XN2RB_JNT_transB_bshngFlng_LH
$HMCOLOR GROUPS  500015      12
$HMFLAG GROUPS SLAVE
    500008    500016
*SET_NODE_LIST
    500016
    507003    507004
*CONSTRAINED_EXTRA_NODES_NODE
$HMNAME GROUPS  500017XN2RB_JNT_lockB_uprTibLdcl2_LH
$HMCOLOR GROUPS  500017      12
$HMFLAG GROUPS SLAVE
    500004    507022
*CONSTRAINED_EXTRA_NODES_NODE
$HMNAME GROUPS  500006XN2RB_Achilles_lwr_mntngPost_LH
$HMCOLOR GROUPS  500006       5
$HMFLAG GROUPS SLAVE
    500034    507554
*CONSTRAINED_EXTRA_NODES_NODE
$HMNAME GROUPS  500007XN2RB_Achilles_PulSlprng_LH
$HMCOLOR GROUPS  500007       5
$HMFLAG GROUPS SLAVE
    500035    507501
*CONSTRAINED_EXTRA_NODES_SET
$HMNAME GROUPS  500016XN2RB_JNT_lockA_uprTibLdcl1_LH
$HMCOLOR GROUPS  500016      10
$HMFLAG GROUPS SLAVE
    500003    500017
*SET_NODE_LIST
    500017
    507026    507027
*CONSTRAINED_EXTRA_NODES_SET
$HMNAME GROUPS  500018XN2RB_JNT_lockA_lwrTibLdcl1_LH
$HMCOLOR GROUPS  500018      10
$HMFLAG GROUPS SLAVE
    500013    500018
*SET_NODE_LIST
    500018
    507028    507029
*ELEMENT_MASS
$HMNAME COMPS  500046PM_tibia_bushing
$HMCOLOR COMPS  500046       9
  507008  5070031.8000000000E-05
  507009  5070051.8000000000E-05
*ELEMENT_SEATBELT_SLIPRING
    507501    507570    507528       0.1    507501
*ELEMENT_DISCRETE
  507001  500007  507003  507005  500001             0.0       0             0.0
*CONSTRAINED_JOINT_LOCKING_LOCAL
$HMNAME COMPS  500043JNTS_lock_upr_lwr_tibldcll_LH
$HMCOLOR COMPS  500043       4
    507008    507002    507028    507018    507029    507017       1.0       1.0
    500013         0
*CONSTRAINED_JOINT_LOCKING_LOCAL
    507001    507022    507026    507009    507027    507010       1.0       1.0
    500003         0
*CONSTRAINED_JOINT_TRANSLATIONAL_LOCAL
$HMNAME COMPS  500044JNTS_trans_tibia_LH
$HMCOLOR COMPS  500044       9
    507005    507004    507006    507003    507025    507007       1.0       1.0
    500006         0
*CONSTRAINED_JOINT_REVOLUTE
$HMNAME COMPS  500045JNTS_revolute_ankle_LH
$HMCOLOR COMPS  500045      12
    507011    507023    507012    507024                           1.0       1.0
*CONSTRAINED_JOINT_REVOLUTE
    507014    507015    507013    507016                           1.0       1.0
*CONSTRAINED_JOINT_REVOLUTE
    507020    507021    507019    507018                           1.0       1.0
*ELEMENT_SEATBELT
  507502  500039  507551  507550       0             0.0
  507503  500039  507549  507548       0             0.0
  507504  500039  507547  507546       0             0.0
  507505  500039  507545  507544       0             0.0
  507506  500039  507543  507542       0             0.0
  507507  500039  507541  507540       0             0.0
  507508  500039  507539  507538       0             0.0
  507509  500039  507537  507536       0             0.0
  507510  500039  507535  507534       0             0.0
  507511  500039  507533  507532       0             0.0
  507512  500039  507531  507530       0             0.0
  507513  500039  507529  507528       0             0.0
  507514  500039  507527  507526       0             0.0
  507515  500039  507525  507524       0             0.0
  507516  500039  507523  507522       0             0.0
  507517  500039  507521  507520       0             0.0
  507518  500039  507519  507518       0             0.0
  507519  500039  507517  507516       0             0.0
  507520  500039  507515  507514       0             0.0
  507521  500039  507513  507512       0             0.0
$ ... 24 like lines cut
*ELEMENT_SEATBELT
  507546  500040  507552  507551       0             0.0
  507547  500040  507550  507549       0             0.0
  507548  500040  507548  507547       0             0.0
  507549  500040  507546  507545       0             0.0
  507550  500040  507544  507543       0             0.0
  507551  500040  507542  507541       0             0.0
  507552  500040  507540  507539       0             0.0
  507553  500040  507538  507537       0             0.0
  507554  500040  507536  507535       0             0.0
  507555  500040  507534  507533       0             0.0
  507556  500040  507532  507531       0             0.0
  507557  500040  507530  507529       0             0.0
  507558  500040  507528  507527       0             0.0
  507559  500040  507526  507525       0             0.0
  507560  500040  507524  507523       0             0.0
  507561  500040  507522  507521       0             0.0
  507562  500040  507520  507519       0             0.0
  507563  500040  507518  507517       0             0.0
  507564  500040  507516  507515       0             0.0
  507565  500040  507514  507513       0             0.0
$ ... 25 like lines cut
*ELEMENT_SOLID
  500175  500002  500452  500451  500474  500472  500453  500453  500473  500473
  500176  500002  500466  500467  500485  500483  500465  500465  500484  500484
  500177  500002  500472  500474  500492  500490  500473  500473  500491  500491
  500178  500002  500483  500485  500503  500501  500484  500484  500502  500502
  500179  500002  500490  500492  500510  500508  500491  500491  500509  500509
  500180  500002  500501  500503  500521  500519  500502  500502  500520  500520
  500181  500002  500444  500442  500451  500452  500445  500445  500453  500453
  500182  500002  500455  500456  500467  500466  500454  500454  500465  500465
  500223  500003  500637  500631  500527  500526  500634  500634  500528  500528
  500224  500003  500639  500642  500530  500529  500640  500640  500531  500531
  500225  500003  500644  500648  500533  500532  500645  500645  500534  500534
  500226  500003  500651  500649  500536  500535  500650  500650  500537  500537
  500227  500003  500526  500527  500549  500548  500528  500528  500550  500550
  500228  500003  500529  500530  500552  500551  500531  500531  500553  500553
  500229  500003  500532  500533  500555  500554  500534  500534  500556  500556
  500230  500003  500535  500536  500558  500557  500537  500537  500559  500559
  500255  500004  503181  503231  503188  503185  503230  503230  503182  503182
  500256  500004  503117  503118  503139  503138  503119  503119  503140  503140
  500257  500004  503120  503121  503142  503141  503122  503122  503143  503143
  500258  500004  503123  503124  503145  503144  503125  503125  503146  503146
$ ... 206 like lines cut
*ELEMENT_SOLID
  500001  500001  500168  500166  500383  500381  500148  500198  500394  500393
  500002  500001  500166  500164  500384  500383  500198  500200  500396  500394
  500003  500001  500164  500162  500364  500384  500200  500202  500398  500396
  500004  500001  500356  500357  500382  500385  500182  500183  500401  500400
  500005  500001  500385  500382  500381  500383  500400  500401  500393  500394
  500006  500001  500354  500355  500386  500361  500180  500181  500403  500402
  500007  500001  500355  500356  500385  500386  500181  500182  500400  500403
  500008  500001  500361  500386  500384  500364  500402  500403  500396  500398
  500009  500001  500386  500385  500383  500384  500403  500400  500394  500396
  500010  500001  500172  500170  500389  500387  500211  500214  500406  500405
  500011  500001  500170  500168  500381  500389  500214  500148  500393  500406
  500012  500001  500387  500389  500390  500388  500405  500406  500409  500408
  500013  500001  500389  500381  500382  500390  500406  500393  500401  500409
  500014  500001  500388  500390  500358  500359  500408  500409  500259  500258
  500015  500001  500390  500382  500357  500358  500409  500401  500183  500259
  500016  500001  500174  500173  500391  500378  500219  500222  500412  500411
  500017  500001  500173  500172  500387  500391  500222  500211  500405  500412
  500018  500001  500378  500391  500392  500379  500411  500412  500415  500414
  500019  500001  500391  500387  500388  500392  500412  500405  500408  500415
  500020  500001  500379  500392  500360  500380  500414  500415  500257  500416
$ ... 3275 like lines cut
$$
$$ Sets Defined In HyperMesh
$$
*DEFINE_SD_ORIENTATION
$HMNAME VECTORCOL  500001tibia_bushing_spring_LH
$HMCOLOR VECTORCOL  500001       4
    500001         2                                  507003    507005
*DATABASE_HISTORY_NODE_LOCAL
$HMNAME OUTPUTBLOCKS  500001foot_nodeout_LH
    505356    500002         1
    505357    500002         1
    505566    500002         1
    506172    500002         1
    510017    500002         1
    510018    500002         1
    510813    500002         1
    510885    500002         1
*DATABASE_HISTORY_NODE_LOCAL
$HMNAME OUTPUTBLOCKS  500002tib_bush_nodeout_LH
    507003    500009         1
    507005    500009         1
*DATABASE_HISTORY_NODE_LOCAL
$HMNAME OUTPUTBLOCKS  500004foot_tibia_acclrmtr_nodout_LH
    505687    500010         1
    501556    500011         1
*DATABASE_HISTORY_NODE
$HMNAME OUTPUTBLOCKS  500005cable_moment_nodeout
    507554    507501    508001
*DEFINE_CURVE
$HMNAME CURVES  500001ankle_laterl_medial_jnt_stffnss
$HMCOLOR CURVES  500001       9
$HMCURVE     1    0 ankle lateral medial joint stiffness
    500001         0       1.0       1.0       0.0       0.0         0
           -0.383972           -500000.0
           -0.380482           -150000.0
           -0.376991            -75000.0
            -0.37001            -47000.0
           -0.363028            -34000.0
           -0.356047            -26000.0
           -0.349066            -20000.5
           -0.340339            -16251.7
           -0.331613            -13398.2
           -0.322886            -11232.0
           -0.314159            -9586.29
           -0.305433            -8328.95
           -0.296706            -7356.73
           -0.287979             -6590.2
           -0.279253            -5969.43
           -0.270526            -5450.19
           -0.261799            -5000.77
           -0.253073            -4599.23
           -0.244346            -4231.12
$ ... 74 like lines cut
*DEFINE_CURVE
$HMNAME CURVES  500002ankle_eversn_inversn_jnt_stffnss
$HMCOLOR CURVES  500002       4
$HMCURVE     1    0 ankle eversion inversion joint stiffness
    500002         0       1.0       1.0       0.0       0.0         0
-0.663225,-500000
-0.659734,-150000
-0.656244,-110000
-0.649262,-72000
-0.642281,-60000
-0.6353,-55000
-0.628319,-52623.4
-0.62,-50424.5
-0.61,-48277.2
-0.6,-46182.8
-0.59,-44141.9
-0.58,-42155.4
-0.57,-40223.8
-0.56,-38347.4
-0.55,-36526.6
-0.54,-34761.5
-0.53,-33052.3
-0.52,-31398.8
-0.51,-29800.9
$ ... 120 like lines cut
*DEFINE_CURVE
$HMNAME CURVES  500003ankle_dorsi_damping
$HMCOLOR CURVES  500003      10
$HMCURVE     1    0 ankle dorsi damping
    500003         0       1.0       1.0       0.0       0.0         0
              -100.0            -30000.0
                 0.0                 0.0
               100.0             60000.0
*DEFINE_CURVE
$HMNAME CURVES  500004ankle_lateral_medial_damping
$HMCOLOR CURVES  500004       9
$HMCURVE     1    0 ankle lateral-medial damping
    500004         0       1.0       1.0       0.0       0.0         0
              -100.0            -10000.0
                 0.0                 0.0
               100.0             10000.0
*DEFINE_CURVE
$HMNAME CURVES  500005ankle_eversn_inversn_damping
$HMCOLOR CURVES  500005      15
$HMCURVE     1    0 ankle eversion-inversion damping
    500005         0       1.0       1.0       0.0       0.0         0
              -100.0            -30000.0
                 0.0                 0.0
               100.0             30000.0
*DEFINE_CURVE
$HMNAME CURVES  500006ankle_dorsi_plantar_jnt_stffnss
$HMCOLOR CURVES  500006      10
$HMCURVE     1    0 ankle dorsi plantar joint stiffness
    500006         0       1.0       1.0       0.0       0.0         0
        -1.024683243          -1350000.0
       -1.0219867082           -945000.0
       -1.0120994137           -675000.0
        -1.006706344           -540000.0
       -0.9977178945           -432000.0
        -0.988729445           -337500.0
       -0.9797409955           -270000.0
       -0.9743479258           -243000.0
       -0.9671571662           -209250.0
       -0.9563710268           -175500.0
       -0.9455848874           -148500.0
      -0.93717169867          -133154.28
      -0.92480359216         -114836.535
      -0.90589189441           -99461.52
      -0.89034187677           -86608.71
      -0.87141220213           -75995.01
      -0.85354316452           -67087.98
      -0.83207874711           -59954.58
        -0.812519881           -53523.99
$ ... 65 like lines cut
*DEFINE_CURVE
$HMNAME CURVES  500007achilles_cable_loading
$HMCOLOR CURVES  500007       6
$HMCURVE     1    0 achilles cable loading
    500007         0       1.0       1.0       0.0       0.0         0
                 0.0                 0.0
             0.01968                50.0
      0.035596551724               100.0
      0.051062068966               150.0
      0.065708275862               200.0
      0.079364137931               250.0
      0.091995172414               300.0
       0.10365586207               350.0
       0.11444965517               400.0
       0.12450206897               450.0
             0.13394               500.0
       0.14287793103               550.0
       0.15140965517               600.0
       0.15960344828               650.0
       0.16750344828               700.0
       0.17513034483               750.0
       0.18248551724               800.0
       0.18955448276               850.0
        0.1963137931               900.0
$ ... 27 like lines cut
*DEFINE_CURVE
$HMNAME CURVES  500008achilles_cable_unloading
$HMCOLOR CURVES  500008       4
$HMCURVE     1    0 achilles cable unloading
    500008         0       1.0       1.0       0.0       0.0         0
                 0.0                 0.0
        0.2335444584                95.0
        0.2455084584               100.0
        0.2502940584               106.0
        0.2550796584               115.0
           0.2584224               125.0
           0.2620116               140.0
        0.2646508584               160.0
        0.2670436584               185.0
        0.2680007784               200.0
          0.26930964               230.0
          0.27014712               260.0
           0.2709846               300.0
          0.27146316               350.0
          0.27194172               500.0
       0.27206896552              2250.0
*END
$HMASSEM   500001      10 lower_leg_LH
$HMASSEM_COMP_IDS   500001  500002  500003  500004  500005  500006  500008  500009
$HMASSEM_COMP_IDS   500010  500011  500012  500013  500014  500036  500037  500038
$HMASSEM   500002      10 ankle_LH
$HMASSEM_COMP_IDS   500015  500016  500017  500018  500019  500020  500021  500022
$HMASSEM_COMP_IDS   500023  500024  500025  500027  500026  500035
$HMASSEM   500003      10 foot_LH
$HMASSEM_COMP_IDS   500028  500033  500029  500030  500031  500034  500032
$HMASSEM   500004      13 loadcells_leg_LH
$HMASSEM_COMP_IDS   500003  500004  500013  500014
$HMASSEM   500005      13 ankle_dorsi_rot_parts_LH
$HMASSEM_COMP_IDS   500019  500020  500021  500022  500023  500028  500033  500029
$HMASSEM_COMP_IDS   500025  500027  500030  500031  500034  500032  500045
$HMASSEM   500006      14 achilles_assembly_LH
$HMASSEM_COMP_IDS   500033  500034  500035  500036  500037  500038  500039  500040
$HMASSEM_COMP_IDS   500041
$HMASSEM   500007      12 auxiliary_leg_LH
$HMASSEM_COMP_IDS   500007  500043  500044  500045  500046
