ID MSC, see101l8 $                                                              
$  V69 6-SEP-1996 CNP                                              
TIME 10  $                                                                      
SOL 101 $                                                                       
CEND                                                                            
TITLE=LOOP STRUCTURE WITH SELOC INCLUDING ROTATION             see101l8         
ECHO = BOTH                                                                     
SUPER = ALL                                                                     
DISP = ALL                                                                      
SPC = 20                                                                        
$SPC = 10                                                                       
LOAD = 1                                                                        
$       $$$$$$$$$$$$$$ FOR NASTRAN PLOT $$$$$$$$$$$$$$$$$$$$$$$$$$              
$       $$$$$$$$$$$$$$ FOR NASTRAN PLOT $$$$$$$$$$$$$$$$$$$$$$$$$$              
OUTPUT(PLOT)                                                                    
  CSCALE  1.3                                                                   
  PLOTTER NAST                                                                  
  PAPER SIZE 20. X 20.                                                          
  SET 1 ALL                                                                     
  MAXI DEFO 5.0                                                                 
$                                                                               
 SEPLOT 0,1,2,3,4,5,6                                                           
  VIEW 34.27 , 23.17 , 0.                                                       
  AXES X , Y , Z                                                                
  FIND SCALE ORIGIN 1 SET 1                                                     
  PLOT   SET 1 LABEL BOTH                                                       
  PLOT  STATIC 0  SET 1 LABEL BOTH                                              
$                                                                               
BEGIN BULK                                                                      
$ **********************************                                            
$                                                                               
$                                                                               
$                                                                               
$                                                                               
$                                                                               
$                                                                               
$                                                                               
$                                                                               
$                                                                               
$                                                                               
$                                                                               
$                                                                               
$                                                                               
$                                                                               
$                                        .                                      
$                                       .   . se 1 before move                  
$                                      .   .                                    
$                                     .   .                                     
$                                    .   .                                      
$                                   .   .  30 deg          y                    
$                                      ._____              |                    
$                                                          |                    
$                                       _____.____   ______._____   _____.______
$                                      |     .    | |    se.1    | |     .      
$                                      |......____| |______._____| |_____.......
$                                      |     |                           |      
$                                      |  s  |       _____   ____        |  s   
$                                      |  e  |      |  s  | | s  |       |  e   
$                                      |  5  |      |  e  | | e  |       |  6   
$                                      |     |      |__2__| |_3__|       |      
$                                      |     |       ______._____   _____|......
$                                      |     |      |    se.4    | |     .      
$                                      |     |      |______._____| |_____.______
$                                      |.....|____   ______._____               
$   1  2  3    4  5  6                 |     .    | |    se.0    |              
$   |  |  |    |  |  |                 |_____.____| |______._____|              
$   ------------------                                                          
$           |                       SE 1,2,3,4,and 0 form a solid core plug     
$           0                       SE 5 and 6 attatch as implied in figure     
$                                                                               
$                                                                               
$                                                                               
$                                                                               
$ Single level by default no SETREE specified                                   
$                                                                               
$ --------------------------------------------------------------------          
$ Residule structure SE=0                                                       
$                                                                               
$ PROPERTIES                                                                    
MAT1    1       29.0+6          0.3     .001    6.5-4                           
PSHELL  100     1       0.5     1                                               
$  APPLIED LOADS                                                                
PLOAD2  1       3.0+3   1       2                                               
$       2       3       4       5       6       7       8       9       10      
GRID    1               0.0     -10.0                                           
GRID    2               5.0     -10.0                                           
GRID    3               5.0     -5.0                                            
GRID    4               0.0     -5.0                                            
GRID    5               -5.0    -10.0                                           
GRID    6               -5.0    -5.0                                            
CQUAD4  1       100     1       2       3       4                               
CQUAD4  2       100     5       1       4       6                               
$                                                                               
$ POINTS DESIGNATED FOR SELOC SE1 (SEE SE1 6,5,2) TO LOCATION (40,50,60)        
$  THIS IS A FROM 3 POINTS IN SE1 TO A LOCATION DEFINED BY 3 POINTS IN SPACE    
$                                                                               
GRID    40              -5.     15.                                             
GRID    50              5.      15.                                             
GRID    60              5.      10.                                             
$                                                                               
$       2       3       4       5       6       7       8       9       0      
$	$seid	$snid	$snid	$snid	$nid	$nid	$nid
SELOC   1       16      13      12      40      50      60                      
$                                                                               
$ SE 1 MANUAL                                                                   
$                                                                               
SEBULK	1	PRIMARY		MANUAL                                                        
SECONCT	1	5							+                                                             
+	16	52	15	51                                                                   
SECONCT	1	6							+                                                             
+	12	61	13	62                                                                   
SECONCT 1       2                                                       +       
+       15	23                                                                   
SECONCT 1       2 	2.8-5                                           +            
+       11      22                                                              
$                                                                               
$                                                                               
$ SE 2 MANUAL                                                                   
$                                                                               
SEBULK  2       PRIMARY         MANUAL                                          
SECONCT 2       3                                                       +       
+       22      32      21	31                                                   
SECONCT 2       4                                                       +       
+       24      46                                                              
$                                                                               
$ SE 3 MANUAL                                                                   
$                                                                               
SEBULK  3       PRIMARY         MANUAL                                          
SECONCT 3       6                                                       +       
+       33	61	34	612                                                            
$                                                                               
$ SE 4 MANUAL                                                                   
$                                                                               
SEBULK  4       PRIMARY         MANUAL                                          
SECONCT 4       3                                                       +       
+       43	34	44	31                                                             
SECONCT 4       6                                                       +       
+       42      611                                                             
SECONCT	4	5							+                                                             
+	45	512                                                                        
SECONCT	4	0							+                                                             
+	45	6	41	4	42	3                                                                
$                                                                               
$ SE 5 MANUAL                                                                   
$                                                                               
SEBULK  5       PRIMARY         MANUAL                                          
SECONCT 5       0                                                       +       
+       511     5                                                               
$                                                                               
$                                                                               
$                                                                               
$                                                                               
$ -----------------------------------------------------------------------       
BEGIN BULK SUPER = 1                                                            
$                                                                               
$ NOTE THAT THIS SE NEEDS TO BE MOVED INT ITS FINAL LOCATION                    
$                                                                               
$ PROPERTIES                                                                    
MAT1    1       29.0+6          0.3     .001    6.5-4                           
PSHELL  100     1       0.5     1                                               
$  APPLIED LOADS                                                                
PLOAD2  1       1.5+3   1	2                                                     
$ GEOMETRY                                                                      
$	2	3	4	5	6	7	8	9	10                                                            
GRID	11		-10.669932.5                                                           
GRID	12		-6.3397535.0                                                           
GRID	13		-8.8397539.33013                                                       
GRID	14		-13.169936.83013                                                       
GRID	15		-15.0	30.0                                                             
GRID	16		-17.5	34.33013                                                         
CQUAD4  1       100     11      12      13      14                              
CQUAD4  2       100     15      11      14      16                              
ASET	14	123                                                                     
$ ------------------------------------------------------------------------      
BEGIN BULK SUPER = 2                                                            
$                                                                               
$ PROPERTIES                                                                    
MAT1    1       31.0+6          0.35    .001    6.5-4                           
PSHELL  100     1       0.5     1                                               
$  APPLIED LOADS                                                                
PLOAD2  1       3.0+3   1                                                       
$ GEOMETRY                                                                      
$       2       3       4       5       6       7       8       9       10      
GRID    21              0.0     0.0                                             
GRID    22              0.0     10.                                             
GRID    23              -5.     10.                                             
GRID    24              -5.     0.0                                             
$       2       3       4       5       6       7       8       9       10      
CQUAD4  1       100     24      23      22      21                              
$ ------------------------------------------------------------------------      
BEGIN BULK SUPER = 3                                                            
$ PROPERTIES                                                                    
MAT1    1       31.0+6          0.35    .001    6.5-4                           
PSHELL  100     1       0.5     1                                               
$  APPLIED LOADS                                                                
PLOAD2  1       3.0+3   1                                                       
$ GEOMETRY                                                                      
$       2       3       4       5       6       7       8       9       10      
GRID    31              0.0     0.0                                             
GRID    32              0.0     10.                                             
GRID    33              5.      10.                                             
GRID    34              5.      0.0                                             
$       2       3       4       5       6       7       8       9       10      
CQUAD4  1       100     34      33      32      31                              
SPC     10      32      13                                                      
SPC     10      34      123                                                     
$ -----------------------------------------------------------------------       
BEGIN BULK SUPER=4                                                              
$ PROPERTIES                                                                    
MAT1    1       29.0+6          0.3     .001    6.5-4                           
PSHELL  100     1       0.5     1                                               
$  APPLIED LOADS                                                                
PLOAD2  1       2.5+3   1       2                                               
$ GEOMETRY                                                                      
$       2       3       4       5       6       7       8       9       10      
GRID    41              0.0     -5.0                                            
GRID    42              5.0     -5.0                                            
GRID    43              5.0     0.0                                             
GRID    44              0.0     0.0                                             
GRID    45              -5.0    -5.0                                            
GRID    46              -5.0    0.0                                             
CQUAD4  1       100     41      42      43      44                              
CQUAD4  2       100     45      41      44      46                              
$ -----------------------------------------------------------------------       
BEGIN BULK SUPER = 5                                                            
$                                                                               
$ PROPERTIES                                                                    
MAT1    1       27.0+6          0.28    .001    6.5-4                           
PSHELL  100     1       0.5     1                                               
$  APPLIED LOADS                                                                
PLOAD2  1       1.5+3   1       2       3       4       5                       
$       2       3       4       5       6       7       8       9       10      
GRID    51              -5.     10.                                             
GRID    52              -5.     15.                                             
GRID    53              -10.    15.                                             
GRID    54              -10.    10.                                             
GRID    55              -15.    15.                                             
GRID    56              -15.    10.                                             
GRID    57              -15.    -5.                                             
GRID    58              -15.    -10.                                            
GRID    59              -10.    -10.                                            
GRID    510             -10.    -5.                                             
GRID    511             -5.     -10.                                            
GRID    512             -5.     -5.                                             
CQUAD4  1       100     51      52      53      54                              
CQUAD4  2       100     53      55      56      54                              
CQUAD4  3       100     510     54      56      57                              
CQUAD4  4       100     57      58      59      510                             
CQUAD4  5       100     59      511     512     510                             
SPC1    20      123456  55      56      57      58                              
$ ------------------------------------------------------------------------      
BEGIN BULK SUPER = 6                                                            
$ ADAPTIVE                                                                      
$ADAPT   10              3       2               4                              
$PVAL    2       2       2       2              SET     50                      
$PVAL    4       4       4       3              SET     50                      
$ GMCURV, FEEDGE, etc. for each superelement                                    
$                                                                               
$ PROPERTIES                                                                    
MAT1    1       40.0+6          0.4     .001    6.5-4                           
PSHELL  100     1       0.5     1                                               
$  APPLIED LOADS                                                                
PLOAD2  1       1.5+3   1       2       3       4       5                       
$       2       3       4       5       6       7       8       9       10      
GRID    61              5.      10.                                             
GRID    62              5.      15.                                             
GRID    63              10.     15.                                             
GRID    64              10.     10.                                             
GRID    65              15.     15.                                             
GRID    66              15.     10.                                             
GRID    67              15.     0.                                              
GRID    68              15.     -5.                                             
GRID    69              10.     0.                                              
GRID    610             10.     -5.                                             
GRID    611             5.      -5.                                             
GRID    612             5.      0.                                              
CQUAD4  1       100     61      62      63      64                              
CQUAD4  2       100     63      65      66      64                              
CQUAD4  3       100     67      69      64      66                              
CQUAD4  4       100     69      67      68      610                             
CQUAD4  5       100     69      610     611     612                             
$ --------------------------------------------------------------------          
ENDDATA                                                                         
Keywords: partition bulk, single level, unique grids, elements, mat etc.,       
SELOC translation-rotation se=1, PLOTS-deformed, undeformed, SEPLOT list        
SEBULK , SECONCT Grid 11 22 TOL bad override TOL for 11.                        
take deck                                                                       
