ID MSC, SEE103Q4 $
$$ V69 4-SEP-1996 CNP
SOL 103
TIME 60
DIAG 8
CEND
TITLE = SE MIRROR PLANE TEST FOR SMALL AIRCRAFT SHELL MODEL    SEE103Q4
ECHO = BOTH
DISP = ALL
STRESS = ALL
SPCFORCE = ALL
OLOAD = ALL
$LOAD = 101
$SPC = 100
METHOD = 9
$
OUTPUT(PLOT)
  CSCALE  1.3
  PLOTTER NAST
  SET 1 ALL
$	isometric view
$   VIEW  210., 25. , 180.
$	front view
   view 0., 0., 180.
   AXES y ,  z,  x
   FIND SCALE ORIGIN 1 SET 1
$ SEPLOT 1 2
$  ptitle =  se 1 & 2
$  FIND SCALE ORIGIN 1 SET 1
$  PLOT  SET 1
$ SEPLOT  2 3
$  ptitle =  se 2 & 3
$  FIND SCALE ORIGIN 1 SET 1
$  PLOT  SET 1
$ SEPLOT  1 12 13
$  ptitle =  se 1 12 & 13
$  FIND SCALE ORIGIN 1 SET 1
$  PLOT  SET 1
$ SEPLOT 1 2 3 4 12 13
$  ptitle = assembled plot
$  FIND SCALE ORIGIN 1 SET 1
$  PLOT  SET 1
$SEPLOT 0
$  FIND SCALE ORIGIN 1 SET 1
$  PLOT  STATIC  SET 1
$ SEPLOT 1
$  FIND SCALE ORIGIN 1 SET 1
$  PLOT  STATIC  SET 1
$ SEPLOT 2
$  FIND SCALE ORIGIN 1 SET 1
$  PLOT  STATIC  SET 1
$ SEPLOT 3
$  FIND SCALE ORIGIN 1 SET 1
$  PLOT  STATIC  SET 1
$ SEPLOT 4
$  FIND SCALE ORIGIN 1 SET 1
$  PLOT  STATIC  SET 1
 SEPLOT 5 15
  FIND SCALE ORIGIN 1 SET 1
  PLOT  STATIC  SET 1
 SEUPPLOT 0
  FIND SCALE ORIGIN 1 SET 1
  PLOT  STATIC  SET 1
BEGIN BULK
param,post,-1
param	usetprt	0
SELABEL	1	Fuselage
SELABEL	2	Main Wing Panel
SELABEL	3	Winglet
SELABEL	4	Veritcal Tail
SELABEL 5	Stabalizer
SELABEL 12	Mirrored Main Wing Panel
SELABEL 13 	Mirrored Winglet
SELABEL	15	Mirrored Stabalizer
$-------2-------3-------4-------5-------6-------7-------8-------9-------10
$
$	Information contained in here is used for the SELOC's
$
GRID	2001		1.	1.625	-1.
GRID	2002		1.	0.	-1.
GRID	2003		1.	-.25	-2.
SELOC	2	19	24	23	2001	2002	2003
$
GRID	2011		1.	 1.75   -5.
GRID	2012		1.	-1.00   -5.	
GRID	2013		1.	-1.08333-6.0
SELOC	3	43	49	35	2011	2012	2013
$
GRID	2021		0.	-3.	0.
GRID	2022		0.	-4.	0.
GRID	2023		.515	-3.	2.58-8
SELOC	4	15	14	100	2021	2022	2023
$
GRID    3001            1.      1.625    1.
GRID    3002            1.      0.       1.
GRID    3003            1.      -.25     2.
SELOC   12      19      24      23      3001    3002    3003
$
GRID    3011            1.       1.75    5.
GRID    3012            1.      -1.00    5.
GRID    3013            1.      -1.08333 6.0
SELOC   13      43      49      35      3011    3012    3013
$
GRID	4001		-1.975	-3.4125	0.
GRID	4002		-1.925	-3.9875	0.
GRID	4003		-1.925	-3.9875	1.	
SELOC	5 	1	3	6	4001	4002	4003
$
$GRID    4101            -1.975  -3.4125 0.
$GRID    4102            -1.925  -3.9875 0.
GRID    4103            -1.925  -3.9875 -1.
SELOC   15      1       3       6       4001    4002    4103
$-------2-------3-------4-------5-------6-------7-------8-------9-------10
GRID	9998		-5.96-8  1.625   0.
GRID	9997		0.	0.	0.
GRID	9996		2.      0.      2.87-7
SEMPLN	12	PLANE	9998	9997	9996
SEMPLN	13	PLANE	9998	9997	9996
SEMPLN	15	PLANE	9998	9997	9996
SEBULK	12	MIRROR	2	AUTO
SEBULK	13	MIRROR	3	AUTO
SEBULK	15	MIRROR	5	AUTO
$SEBULK,12,MANUAL,3
$
EIGRL	9	0.1	9000.	6
$
begin bulk super = 1
$ NASTRAN input file created by the PDA MSC/NASTRAN input file
$ translator ( PAT3/MSC-NASTRAN Release 1.4-1 ) on April     30, 1996 at
$  11:47:25.
$
$
$ Elements and Element Properties for region : fg
MAT1	1	345.9e4		0.234	4.6	
PSHELL   1       1       .1768   1               1
CQUAD4   17      1       5       9       31      30
CQUAD4   18      1       9       14      32      31
CQUAD4   19      1       14      19      33      32
CQUAD4   20      1       19      24      34      33
CQUAD4   21      1       30      31      36      35
CQUAD4   22      1       31      32      37      36
CQUAD4   23      1       32      33      38      37
CQUAD4   24      1       33      34      39      38
CQUAD4   25      1       35      36      41      40
CQUAD4   26      1       36      37      42      41
CQUAD4   27      1       37      38      43      42
CQUAD4   28      1       38      39      44      43
CQUAD4   29      1       40      41      46      45
CQUAD4   30      1       41      42      47      46
CQUAD4   31      1       42      43      48      47
CQUAD4   32      1       43      44      49      48
CQUAD4   33      1       45      46      51      50
CQUAD4   34      1       46      47      52      51
CQUAD4   35      1       47      48      53      52
CQUAD4   36      1       48      49      54      53
$ ... 12 like lines cut
CTRIA3   49      1       80      79      5
CTRIA3   50      1       5       30      80
CTRIA3   51      1       30      35      80
CTRIA3   52      1       81      80      35
CTRIA3   53      1       82      81      35
CTRIA3   54      1       35      40      82
CTRIA3   55      1       40      45      82
CTRIA3   56      1       83      82      45
CTRIA3   57      1       84      83      45
CTRIA3   58      1       45      50      84
CTRIA3   59      1       50      55      84
CTRIA3   60      1       85      84      55
CTRIA3   61      1       86      85      55
CTRIA3   62      1       55      60      86
CTRIA3   63      1       60      5       86
CTRIA3   64      1       79      86      5
CTRIA3   65      1       79      80      88
CTRIA3   66      1       89      88      80
CTRIA3   67      1       90      89      80
CTRIA3   68      1       80      81      90
$ ... 76 like lines cut
$ Referenced Material Records
$ Material Record : carb
$ Description of Material :
$ Externally Defined Material of NASTRAN Material id "1" and NASTRAN
$ Material Type "MAT1".
$ External Material carb                            MAT1    ID 1
$ Nodes of the Entire Model
GRID     5              -2.38-7  6.5     0.
GRID     9              -1.78-7  4.875   0.
GRID     14             -1.19-7  3.25    0.
GRID     19             -5.96-8  1.625   0.
GRID     24              0.      0.      0.
GRID     30              .292893 6.5     .707107
GRID     31              .292893 4.875   .707107
GRID     32              .292893 3.25    .707107
GRID     33              .292893 1.625   .707107
GRID     34              .292893 0.      .707107
GRID     35              1.      6.5     1.
GRID     36              1.      4.875   1.
GRID     37              1.      3.25    1.
GRID     38              1.      1.625   1.
GRID     39              1.      0.      1.
GRID     40              1.70710 6.5     .707107
GRID     41              1.70710 4.875   .707107
GRID     42              1.70710 3.25    .707107
GRID     43              1.70710 1.625   .707107
GRID     44              1.70710 0.      .707107
$ ... 68 like lines cut
$SPC1	100	123456	45	thru	49
Force	101	79		80.	0.	-1.	0.
Force   101     80              80.     0.      -1.     0.
Force   101     81              80.     0.      -1.     0.
Force   101     82              80.     0.      -1.     0.
Force   101     83              80.     0.      -1.     0.
Force   101     84              80.     0.      -1.     0.
Force   101     85              80.     0.      -1.     0.
Force   101     86              80.     0.      -1.     0.
$
Begin Bulk Super = 2
MAT1    1       541.9e4         0.234   4.6
$include 'wing.dat'
PSHELL   3       1       .217    1               1
CQUAD4   1       3       1       2       8       10
CQUAD4   2       3       2       3       7       8
CQUAD4   3       3       3       4       6       7
CQUAD4   4       3       4       5       9       6
CTRIA3   5       3       10      8       11
CQUAD4   6       3       8       7       12      11
CQUAD4   7       3       7       6       13      12
CQUAD4   8       3       6       9       14      13
CQUAD4   9       3       10      11      16      15
CQUAD4   10      3       11      12      17      16
CQUAD4   11      3       12      13      18      17
CQUAD4   12      3       13      14      19      18
CQUAD4   13      3       15      16      21      20
CQUAD4   14      3       16      17      22      21
CQUAD4   15      3       17      18      23      22
CQUAD4   16      3       18      19      24      23
GRID     1              -4.      1.75    0.
GRID     2              -2.77776 2.74616 0.
GRID     3              -1.65656 3.85502 0.
GRID     4              -.668054 5.08269 0.
GRID     5              -2.38-7  6.5     0.
GRID     6              -.853195 3.81499 0.
GRID     7              -1.82520 2.83594 0.
GRID     8              -2.88596 1.90095 0.
GRID     9              -1.78-7  4.875   0.
GRID     10             -4.      .833333 0.
GRID     11             -2.94435 1.19596 0.
GRID     12             -1.91550 1.79503 0.
GRID     13             -.933078 2.49271 0.
GRID     14             -1.19-7  3.25    0.
GRID     15             -4.     -.083333 0.
GRID     16             -2.97767 .258299 0.
GRID     17             -1.96635 .670566 0.
GRID     18             -.973989 1.1327  0.
GRID     19             -5.96-8  1.625   0.
GRID     20             -4.     -1.      0.
$ ... 4 like lines cut
FORCE	101	1		80.	0.	-1.	0.
FORCE	101	2		50.	0.	-1.	0.
FORCE	101	3		30.	0.	-1.	0.
FORCE	101	4		20.	0.	-1.	0.
$PLOAD2	101	-48.7	1	thru	4
$PLOAD2	101	-51.0	13	thru	16

Begin Bulk Super = 3
MAT1    2       309.0e4         0.330   1.6
$include 'winlet.dat'
PSHELL   2       2       .0998   2               2
CTRIA6   101     2       17      15      1       16      8       9
CTRIA6   102     2       1       3       17      2       10      9
CTRIA6   103     2       19      17      3       18      10      11
CTRIA6   104     2       3       5       19      4       12      11
CTRIA6   105     2       21      19      5       20      12      13
CTRIA6   106     2       5       7       21      6       14      13
CTRIA6   107     2       31      29      15      30      22      23
CTRIA6   108     2       15      17      31      16      24      23
CTRIA6   109     2       33      31      17      32      24      25
CTRIA6   110     2       17      19      33      18      26      25
CTRIA6   111     2       35      33      19      34      26      27
CTRIA6   112     2       19      21      35      20      28      27
CTRIA6   114     2       29      31      45      30      38      37
CTRIA6   116     2       31      33      47      32      40      39
CTRIA6   118     2       33      35      49      34      42      41
CTRIA3	 119	 2	 29	36	37
CTRIA3	 120	 2 	 29	37	30
CTRIA3	 121	 2 	 30	38	31
CTRIA3	 122	 2 	 31	38	39
CTRIA3	 123	 2 	 31	39	32
$ ... 13 like lines cut
$	2	4	5	6	7	
GRID     1              -3.     -1.5     0.
GRID     2              -3.     -1.75    0.
GRID     3              -3.     -2.      0.
GRID     4              -3.     -2.25    0.
GRID     5              -3.     -2.5     0.
GRID     6              -3.     -2.75    0.
GRID     7              -3.     -3.      0.
GRID     8              -2.5    -1.25    0.
GRID     9              -2.5    -1.56944 0.
GRID     10             -2.5    -1.81944 0.
GRID     11             -2.5    -2.13888 0.
GRID     12             -2.5    -2.38888 0.
GRID     13             -2.5    -2.70833 0.
GRID     14             -2.5    -2.95833 0.
GRID     15             -2.     -1.      0.
GRID     16             -2.     -1.31944 0.
GRID     17             -2.     -1.63888 0.
GRID     18             -2.     -1.95833 0.
GRID     19             -2.     -2.27777 0.
GRID     20             -2.     -2.59722 0.
$ ... 26 like lines cut
$PLOAD2	101	-9.1	119	thru	136
Begin Bulk Super = 4
$include 'tail.dat'
PSHELL   1       1       .5467   1               1
CQUAD4   1       1       1       2       5       4
CQUAD4   2       1       4       5       8       6
CQUAD4   3       1       6       8       10      9
CQUAD4   4       1       9       10      12      13
CQUAD4   5       1       10      8       11      12
CQUAD4   6       1       8       5       7       11
CQUAD4   7       1       5       2       3       7
CQUAD4   8       1       13      12      15      14
CQUAD4   9       1       12      11      16      15
CQUAD4   10      1       11      7       17      16
CQUAD4   11      1       7       3       18      17
CQUAD4   12      1       19      20      26      25
CQUAD4   13      1       20      21      27      26
CQUAD4   14      1       21      22      28      27
CQUAD4   15      1       22      23      29      28
CQUAD4   16      1       23      24      30      29
CQUAD4   17      1       25      26      32      31
CQUAD4   18      1       26      27      33      32
CQUAD4   19      1       27      28      34      33
CQUAD4   20      1       28      29      35      34
$ ... 11 like lines cut
$ Referenced Material Records
$ Material Record : dfg
$ Description of Material : Date: 08-May-96           Time: 11:03:04
MAT1     1       8.39+6          .3      1.0998
$ Nodes of the Entire Model
GRID     1               2.      .5      0.
GRID     2               1.33333 .333333 0.
GRID     3               .666667 .166667 0.
GRID     4               2.4     .4      0.
GRID     5               1.90212 .270923 0.
GRID     6               2.8     .3      0.
GRID     7               1.44018 .137315 0.
GRID     8               2.43496 .213047 0.
GRID     9               3.2     .2      0.
GRID     10              2.84578 .169594 0.
GRID     11              2.19370 .111566 0.
GRID     12              2.90669 .09548  0.
GRID     13              3.6     .1      0.
GRID     14              4.      0.      0.
GRID     15              3.      0.      0.
GRID     16              2.      0.      0.
GRID     17              1.      0.      0.
GRID     18              0.      0.      0.
GRID     19              3.5     2.5     0.
GRID     20              3.75    2.5     0.
$ ... 23 like lines cut
Begin Bulk Super = 5
$include 'stab.dat'
PSHELL   1       1       .388    1               1
CQUADR   1       1       1       2       5       4
CQUADR   2       1       2       3       6       5
CQUADR   3       1       4       5       8       7
CQUADR   4       1       5       6       9       8
CQUADR   5       1       10      11      14      13
CQUADR   6       1       11      3       6       14
CQUADR   7       1       13      14      17      16
CQUADR   8       1       14      6       9       17
$ Referenced Material Records
$ Material Record : nhgf
$ Description of Material : Date: 09-May-96           Time: 09:18:17
MAT1     1       8.95+6          .265    1.06757
$ Nodes of the Entire Model
$	2	3	4	5	6	
GRID     1              0.      0.      0.
GRID     2              .288585 0.      0.
GRID     3              .57717  0.      0.
GRID     4              .145811 -.037706-1.00
GRID     5              .361523 -.018858-1.0
GRID     6              .57717  0.      -1.0
GRID     7              .292969 -.050112-2.5
GRID     8              .43507  -.025056-2.5
GRID     9              .57717  0.      -2.5
GRID     10             1.3     .2      0.
GRID     11             .938585 .1      0.
GRID     13             1.10442 .196706 -1.
GRID     14             .84073  .098346 -1.
GRID     16             .915729 .16124  -2.5
GRID     17             .74645  .08062  -2.5
$ Loads for Load Case : Default
$PLOAD2	101	-32.4	1	thru	8
enddata

Mirror plane, SELOC both translations and rotations, Coord systems
SELABEL,QUAD4,tri3,tri6,SOL 103

When Run on 5-10-96:

 0*** SYSTEM FATAL MESSAGE  3007 MODULE = LCGEN
 +1745  0ILLEGAL INPUT TO SUBROUTINE LCGEN
 +1746  0FATAL ERROR

