$ NASTRAN input file created by the MSC MSC.Nastran input file
$ translator ( MSC.Patran 13.1.116 ) on June      01, 2016 at 13:29:06.
$ Direct Text Input for Nastran System Cell Section
$ Linear Static Analysis, Database
SOL 101
CEND
ECHO = NONE
SUBCASE 1
$ Subcase name : DEFAULT.SC1
   SUBTITLE=DEFAULT.SC1
   DISPLACEMENT(SORT1,REAL)=ALL
   SPCFORCES(SORT1,REAL)=ALL
   STRESS(SORT1,REAL,VONMISES,BILIN)=ALL
BEGIN BULK
PARAM    POST    0
PARAM   PRTMAXIM YES
$ Elements and Element Properties for region : dummy
PBAR     1       1      1.      1.      1.      1.
$ Pset: "dummy" will be imported as: "pbar.1"
CBAR     2113    1       21      42      0.      0.     1.
CBAR     2114    1       42      63      0.      0.     1.
CBAR     2115    1       63      84      0.      0.     1.
CBAR     2116    1       84      105     0.      0.     1.
CBAR     2117    1       105     126     0.      0.     1.
CBAR     2118    1       126     147     0.      0.     1.
CBAR     2119    1       147     168     0.      0.     1.
CBAR     2120    1       168     189     0.      0.     1.
CBAR     2121    1       189     210     0.      0.     1.
CBAR     2122    1       210     231     0.      0.     1.
CBAR     2123    1       231     252     0.      0.     1.
CBAR     2124    1       252     273     0.      0.     1.
CBAR     2125    1       273     294     0.      0.     1.
CBAR     2126    1       294     315     0.      0.     1.
CBAR     2127    1       315     336     0.      0.     1.
CBAR     2128    1       336     357     0.      0.     1.
CBAR     2129    1       357     378     0.      0.     1.
CBAR     2130    1       378     399     0.      0.     1.
CBAR     2131    1       399     420     0.      0.     1.
CBAR     2132    1       420     441     0.      0.     1.
$ ... 30 like lines cut
$ Elements and Element Properties for region : dummy2
PSHELL   2       1      .1       1               1
$ Pset: "dummy2" will be imported as: "pshell.2"
CQUAD4   1       2       1       22      23      2       0.      0.
CQUAD4   2       2       2       23      24      3       0.      0.
CQUAD4   3       2       3       24      25      4       0.      0.
CQUAD4   4       2       4       25      26      5       0.      0.
CQUAD4   5       2       5       26      27      6       0.      0.
CQUAD4   6       2       6       27      28      7       0.      0.
CQUAD4   7       2       7       28      29      8       0.      0.
CQUAD4   8       2       8       29      30      9       0.      0.
CQUAD4   9       2       9       30      31      10      0.      0.
CQUAD4   10      2       10      31      32      11      0.      0.
CQUAD4   11      2       11      32      33      12      0.      0.
CQUAD4   12      2       12      33      34      13      0.      0.
CQUAD4   13      2       13      34      35      14      0.      0.
CQUAD4   14      2       14      35      36      15      0.      0.
CQUAD4   15      2       15      36      37      16      0.      0.
CQUAD4   16      2       16      37      38      17      0.      0.
CQUAD4   17      2       17      38      39      18      0.      0.
CQUAD4   18      2       18      39      40      19      0.      0.
CQUAD4   19      2       19      40      41      20      0.      0.
CQUAD4   20      2       20      41      42      21      0.      0.
$ ... 1980 like lines cut
CTRIA3   2001    2       1070    2123    1071    0.      0.
CQUAD4   2002    2       1070    1069    2124    2123    0.      0.
CQUAD4   2003    2       1069    1068    2125    2124    0.      0.
CQUAD4   2004    2       1068    1067    2126    2125    0.      0.
CQUAD4   2005    2       1067    1066    2127    2126    0.      0.
CQUAD4   2006    2       1051    2141    2143    1052    0.      0.
CQUAD4   2007    2       1052    2143    2164    1053    0.      0.
CQUAD4   2008    2       1053    2164    2163    1054    0.      0.
CQUAD4   2009    2       1054    2163    2144    1055    0.      0.
CQUAD4   2010    2       1055    2144    2145    1056    0.      0.
CQUAD4   2011    2       1056    2145    2146    1057    0.      0.
CQUAD4   2012    2       1057    2146    2147    1058    0.      0.
CQUAD4   2013    2       1058    2147    2148    1059    0.      0.
CQUAD4   2014    2       1059    2148    2149    1060    0.      0.
CQUAD4   2015    2       1061    2150    2151    1062    0.      0.
CQUAD4   2016    2       1062    2151    2152    1063    0.      0.
CQUAD4   2017    2       1063    2152    2165    1064    0.      0.
CQUAD4   2018    2       2128    2153    2154    2129    0.      0.
CQUAD4   2019    2       2129    2154    2155    2130    0.      0.
CQUAD4   2020    2       2130    2155    2156    2131    0.      0.
CQUAD4   2021    2       2133    2157    2158    2134    0.      0.
$ ... 21 like lines cut
CTRIA3   2043    2       2149    2171    2172    0.      0.
CQUAD4   2044    2       2156    2174    2132    2131    0.      0.
CQUAD4   2045    2       2132    2174    2173    2133    0.      0.
CQUAD4   2046    2       2157    2175    2172    2171    0.      0.
CQUAD4   2047    2       2173    2175    2157    2133    0.      0.
CQUAD4   2048    2       2173    2176    2172    2175    0.      0.
CQUAD4   2049    2       2150    2176    2173    2174    0.      0.
CQUAD4   2050    2       2150    2174    2156    2151    0.      0.
CQUAD4   2051    2       2176    2177    2149    2172    0.      0.
CQUAD4   2052    2       2149    2177    1061    1060    0.      0.
CQUAD4   2053    2       1061    2177    2176    2150    0.      0.
CQUAD4   2054    2       2153    2178    1065    1064    0.      0.
CQUAD4   2055    2       1065    2178    2127    1066    0.      0.
CQUAD4   2056    2       2127    2178    2153    2128    0.      0.
CTRIA3   2057    2       20      21      1073    0.      0.
CQUAD4   2058    2       20      1073    1074    19      0.      0.
CQUAD4   2059    2       19      1074    1075    18      0.      0.
CQUAD4   2060    2       18      1075    1076    17      0.      0.
CQUAD4   2061    2       17      1076    1077    16      0.      0.
CQUAD4   2062    2       1       2       2179    1091    0.      0.
CQUAD4   2063    2       2       3       2200    2179    0.      0.
CQUAD4   2064    2       3       4       2199    2200    0.      0.
CQUAD4   2065    2       4       5       2180    2199    0.      0.
CQUAD4   2066    2       5       6       2181    2180    0.      0.
CQUAD4   2067    2       6       7       2182    2181    0.      0.
CQUAD4   2068    2       7       8       2183    2182    0.      0.
CQUAD4   2069    2       8       9       2184    2183    0.      0.
CQUAD4   2070    2       9       10      2185    2184    0.      0.
CQUAD4   2071    2       11      12      2187    2186    0.      0.
CQUAD4   2072    2       12      13      2188    2187    0.      0.
CQUAD4   2073    2       13      14      2201    2188    0.      0.
CQUAD4   2074    2       1078    1079    2190    2189    0.      0.
CQUAD4   2075    2       1079    1080    2191    2190    0.      0.
CQUAD4   2076    2       1080    1081    2192    2191    0.      0.
CQUAD4   2077    2       1083    1084    2194    2193    0.      0.
$ ... 21 like lines cut
CTRIA3   2099    2       2185    2208    2207    0.      0.
CQUAD4   2100    2       2192    1081    1082    2210    0.      0.
CQUAD4   2101    2       1082    1083    2209    2210    0.      0.
CQUAD4   2102    2       2193    2207    2208    2211    0.      0.
CQUAD4   2103    2       2209    1083    2193    2211    0.      0.
CQUAD4   2104    2       2209    2211    2208    2212    0.      0.
CQUAD4   2105    2       2186    2210    2209    2212    0.      0.
CQUAD4   2106    2       2186    2187    2192    2210    0.      0.
CQUAD4   2107    2       2212    2208    2185    2213    0.      0.
CQUAD4   2108    2       2185    10      11      2213    0.      0.
CQUAD4   2109    2       11      2186    2212    2213    0.      0.
CQUAD4   2110    2       2189    14      15      2214    0.      0.
CQUAD4   2111    2       15      16      1077    2214    0.      0.
CQUAD4   2112    2       1077    1078    2189    2214    0.      0.
$ Referenced Material Records
$ Material Record : dummy
$ Description of Material :
MAT1*    1              1.+7            3.84615+6       .3
*       .1
$ Nodes of the Entire Model
GRID     1               0.     10.      0.
GRID     2              .038    10.     .0316
GRID     3              .0879   10.     .0446
GRID     4              .1389   10.     .0522
GRID     5              .1902   10.     .0568
GRID     6              .2416   10.     .0592
GRID     7              .2931   10.     .06
GRID     8              .3446   10.     .0596
GRID     9              .3961   10.     .0582
GRID     10             .4475   10.     .0559
GRID     11             .4989   10.     .053
GRID     12             .5502   10.     .0495
GRID     13             .6016   10.     .0455
GRID     14             .6528   10.     .0411
GRID     15             .7041   10.     .0363
GRID     16             .7553   10.     .0311
GRID     17             .8065   10.     .0255
GRID     18             .8576   10.     .0196
GRID     19             .9087   10.     .0134
GRID     20             .9597   10.     .0067
$ ... 2092 like lines cut
$ Loads for Load Case : DEFAULT.SC1
$ Referenced Coordinate Frames
ENDDATA f7b7280b
