INIT MASTER(S)
NASTRAN SYSTEM(442)=-1, SYSTEM(319)=1
ID Femap,Femap
SOL SEMODES
TIME 10000
CEND
  TITLE = Plate Modes
  ECHO = NONE
  DISPLACEMENT = ALL
  SPCFORCE = ALL
  ESE = ALL
  METHOD = 1
BEGIN BULK
$ ***************************************************************************
$   Written by : Femap with NX Nastran
$   Version    : 10.3.0
$   Translator : NX Nastran
$   From Model : 
$   Date       : Thu Jan 26 13:50:46 2012
$ ***************************************************************************
$
PARAM,POST,-1
PARAM,GPWG,-1
PARAM,LAMA,-1
PARAM,OGEOM,NO
PARAM,AUTOSPC,YES
PARAM,GRDPNT,0
EIGRL          1                      10       0                    MASS
CORD2C         1       0      0.      0.      0.      0.      0.      1.+FEMAPC1
+FEMAPC1      1.      0.      1.
CORD2S         2       0      0.      0.      0.      0.      0.      1.+FEMAPC2
+FEMAPC2      1.      0.      1.
$ Femap with NX Nastran Property 1 : 1/8" Plate
PSHELL         1       1    .125       1               1              0.
$ Femap with NX Nastran Material 1 : AISI 4340 Steel
MAT1           1   2.9+7             .327.3315-4   6.6-6     70.        +       
+        215000. 240000. 156000.
MAT4           14.8611-4   38.647.3315-4                        
GRID           1       0      0.      0.      0.       0
GRID           2       0      0.      .1      0.       0
GRID           3       0      0.      .2      0.       0
GRID           4       0      0.      .3      0.       0
GRID           5       0      0.      .4      0.       0
GRID           6       0      0.      .5      0.       0
GRID           7       0      0.      .6      0.       0
GRID           8       0      0.      .7      0.       0
GRID           9       0      0.      .8      0.       0
GRID          10       0      0.      .9      0.       0
GRID          11       0      0.      1.      0.       0
GRID          12       0      .1      1.      0.       0
GRID          13       0      .2      1.      0.       0
GRID          14       0      .3      1.      0.       0
GRID          15       0      .4      1.      0.       0
GRID          16       0      .5      1.      0.       0
GRID          17       0      .6      1.      0.       0
GRID          18       0      .7      1.      0.       0
GRID          19       0      .8      1.      0.       0
GRID          20       0      .9      1.      0.       0
$ ... 211 like lines cut
CQUAD4         1       1       1       2      61      60                
CQUAD4         2       1       2       3      62      61                
CQUAD4         3       1       3       4      63      62                
CQUAD4         4       1       4       5      64      63                
CQUAD4         5       1       5       6      65      64                
CQUAD4         6       1       6       7      66      65                
CQUAD4         7       1       7       8      67      66                
CQUAD4         8       1       8       9      68      67                
CQUAD4         9       1       9      10      69      68                
CQUAD4        10       1      10      11      12      69                
CQUAD4        11       1      60      61      70      59                
CQUAD4        12       1      61      62      71      70                
CQUAD4        13       1      62      63      72      71                
CQUAD4        14       1      63      64      73      72                
CQUAD4        15       1      64      65      74      73                
CQUAD4        16       1      65      66      75      74                
CQUAD4        17       1      66      67      76      75                
CQUAD4        18       1      67      68      77      76                
CQUAD4        19       1      68      69      78      77                
CQUAD4        20       1      69      12      13      78                
$ ... 180 like lines cut
ENDDATA 9bdf8a2c
