ID NX Nastran, resvec23
$
$ DESCRIPTION - Case control RESVEC test for multi-level
$               superelement.
$
$ SOLUTION    - 103
$
$
SOL 103
diag 8,15
CEND
TITLE = S.E. residual vector, single level
$
METHOD = 2
resvec(applod,rvdof) = yes
SUBCASE 10
  SUPER = 1
  METHOD = 1
  resvec(noappl,rvdof) = yes
SUBCASE 11
  SUPER = 2
  METHOD = 1
  resvec(applod,norvdo) = yes
SUBCASE 20
  SUPER = 3
  METHOD = 3
  resvec(applod,rvdof) = nocomponent
SUBCASE 21
  SUPER = 4
  METHOD = 3
  resvec(applod,rvdof) = nosystem
SUBCASE 30
  SET 56 = 5,6
  SUPER = 56
SUBCASE 40
  SUPER = 7
  $resvec(noinrl,rvdof,applod) = yes
  resvec(inrlod,norvdo,noappl) = yes
  $resvec(inrlod,rvdof,applod) = yes
  $resvec(inrlod,norvdo,applod) = yes
  $resvec(inrlod,rvdof,noappl) = yes
SUBCASE 50
  SUPER = 0
  LABEL = RES STR - SOLVE PROBLEM FOR SYSTEM MODES
  METHOD = 4
  resvec(applod,rvdof) = system
BEGIN BULK
RLOAD2  1       401                     200
RLOAD2  2       402                     200
RLOAD2  3       403                     200
RLOAD2  4       404                     200
RLOAD2  5       405                     200
RLOAD2  6       406                     200
TABLED1 200                                                             +TBL1
+TBL1   0.      1.0     100.    1.0     ENDT
force,401,23,,1.,0.,0.,1.
force,402,29,,1.,0.,0.,1.
force,403,41,,1.,0.,0.,1.
force,404,93,,1.,0.,0.,1.
force,405,99,,1.,0.,0.,1.
force,406,7,,1.,0.,0.,1.
$
rvdof1,3,6,19,21,26,28,31,98,104
rvdof,104,1
$
eigrl,1,,1000.
eigrl,2,,2000.
eigrl,3,,4000.
eigrl,4,,100.
GRID        1001
GRID        1002
GRID        1003
GRID        1004
GRID        1005
GRID        1006
GRID        1007
GRID        1008
GRID        1009
GRID        1010
GRID        1011
GRID        1012
GRID        1013
GRID        1014
GRID        1015
GRID        1016
GRID        1017
GRID        1018
GRID        1019
GRID        1020
$ ... 7 like lines cut
$
$  DEFINE QSET DOF FOR S.E.
$
$qset1,0,100001,thru,100010
$spoint,100001,thru,100010
SEQSET1,1,12345,1001,1002,1003
SEQSET1,2,12345,1004,1005,1006
SEQSET1,3,12345,1007,1008,1009,1010
SEQSET1,4,12345,1011,1012,1013,1014
SEQSET1,5,12345,1015,1016,1017,1018,1019,1020
SEQSET1,6,12345,1020,1021,1022,1023,1024,1025
SEQSET1,7,12345,1026,1027
$
$ DEFINE S.E. - ONLY CHANGES ARE INCLUSION OF BOUNDARY GRIDS AND SEQSET
$               IN DOWNSTREAM S.E. AND DTI,SETREE CARD
$
DTI,SETREE,1,1,3,2,4,3,5,+SETRE1
+SETRE1,4,6,5,0,6,0,7,0
$
SESET,1,33,34,37,38
SESET,1,45,THRU,50
SESET,1,57,THRU,62
SESET,1,69,THRU,74
SESET,1,81,THRU,86
SESET,1,93,THRU,98
$
SESET,2,39,40,43,44
SESET,2,51,THRU,56
SESET,2,63,THRU,68
SESET,2,75,THRU,80
SESET,2,87,THRU,92
SESET,2,99,THRU,104
$
$ ADD BOUNDARY GRIDS AND UPSTREAM MODES TO DOWNSTREAM S.E.
$
SESET,3,35,36
SESET,3,29,30
SESET,3,1001,1002,1003
$
$ ADD BOUNDARY GRIDS AND UPSTREAM MODES TO DOWNSTREAM S.E.
$
SESET,4,41,42
SESET,4,31,32
SESET,4,1004,1005,1006
$
$ ADD BOUNDARY GRIDS AND UPSTREAM MODES TO DOWNSTREAM S.E.
$
SESET,5,19,20
SESET,5,21,22
SESET,5,9,THRU,12
SESET,5,1007,1008,1009,1010
$
$ ADD BOUNDARY GRIDS AND UPSTREAM MODES TO DOWNSTREAM S.E.
$
SESET,6,27,28
SESET,6,25,26
SESET,6,15,THRU,18
SESET,6,1011,1012,1013,1014
$
SESET,7,1,THRU,8
$
$ *******************************************************************
$  BASIC MODEL DEFINITION - SAME FOR ALL RUNS
$ *******************************************************************
$
$GRDSET,1,2,3,4,5,,6
GRDSET,,,,,,,6
GRID,1,,-.4,0.,0.,,123456
GRID           3            -0.4     0.9     0.0
GRID           5            -0.4     1.8     0.0
GRID           7            -0.4     2.7     0.0
GRID,2,,.4,0.,0.,,123456
GRID           4             0.4     0.9     0.0
GRID           6             0.4     1.8     0.0
GRID           8             0.4     2.7     0.0
GRID           9            -3.6     3.6     0.0
GRID          10            -2.8     3.6     0.0
GRID          11            -2.0     3.6     0.0
GRID          12            -1.2     3.6     0.0
GRID          13            -0.4     3.6     0.0
GRID          14             0.4     3.6     0.0
GRID          15             1.2     3.6     0.0
GRID          16             2.0     3.6     0.0
GRID          17             2.8     3.6     0.0
GRID          18             3.6     3.6     0.0
GRID          19            -3.6     4.4     0.0
GRID          20            -2.8     4.4     0.0
GRID          21            -2.0     4.4     0.0
GRID          22            -1.2     4.4     0.0
GRID          23            -0.4     4.4     0.0
GRID          24             0.4     4.4     0.0
GRID          25             1.2     4.4     0.0
GRID          26             2.0     4.4     0.0
GRID          27             2.8     4.4     0.0
GRID          28             3.6     4.4     0.0
GRID,29,,-3.6,5.2,0.
GRID,30,,-2.8,5.2,0.
GRID,31,,2.8,5.2,0.
GRID,32,,3.6,5.2,0.
GRID          33            -5.2     6.0     0.0
GRID          34            -4.4     6.0     0.0
GRID          35            -3.6     6.0     0.0
GRID          36            -2.8     6.0     0.0
GRID          37            -2.0     6.0     0.0
GRID          38            -1.2     6.0     0.0
GRID          39             1.2     6.0     0.0
GRID          40             2.0     6.0     0.0
GRID          41             2.8     6.0     0.0
GRID          42             3.6     6.0     0.0
GRID          43             4.4     6.0     0.0
GRID          44             5.2     6.0     0.0
GRID          45            -5.2     6.8     0.0
GRID          46            -4.4     6.8     0.0
GRID          47            -3.6     6.8     0.0
GRID          48            -2.8     6.8     0.0
GRID          49            -2.0     6.8     0.0
GRID          50            -1.2     6.8     0.0
GRID          51             1.2     6.8     0.0
GRID          52             2.0     6.8     0.0
$ ... 52 like lines cut
$
$  ELEMENTS
$
cdamp2,101,.1,1,1,2,1
cdamp2,102,.1,1,2,2,2
cdamp2,103,.1,1,3,2,3

cdamp2,201,.1,51,1,54,1
cdamp2,202,.1,51,2,54,2
cdamp2,203,.1,51,3,54,3

CQUAD4         1       1       1       2       4       3
CQUAD4         2       1       3       4       6       5
CQUAD4         3       1       5       6       8       7
CQUAD4,4,1,7,8,14,13
CQUAD4         6       1       9      10      20      19
CQUAD4         7       1      10      11      21      20
CQUAD4         8       1      11      12      22      21
CQUAD4         9       1      12      13      23      22
CQUAD4,5,1,13,14,24,23
CQUAD4        10       1      14      15      25      24
CQUAD4        11       1      15      16      26      25
CQUAD4        12       1      16      17      27      26
CQUAD4        13       1      17      18      28      27
CQUAD4,14,1,19,20,30,29
CQUAD4,15,1,29,30,36,35
CQUAD4,16,1,27,28,32,31
CQUAD4,17,1,31,32,42,41
CQUAD4        18       1      33      34      46      45
CQUAD4        19       1      34      35      47      46
CQUAD4        20       1      35      36      48      47
$ ... 47 like lines cut
MAT1,1,30.+6,,.3,.283
PARAM,WTMASS,.00259
PSHELL,1,1,.05,1,,1
$
$ LOADINGS
$
$ LOAD CASE 1 - PRESSURE LOAD
$
PLOAD2,101,-1.,18,THRU,42
PLOAD2,102,-1.,43,THRU,67
$
$ LOAD CASE 2 - 2 POINT LOADS AT CORNERS
$
FORCE,201,93,,2.,0.,0.,1.
FORCE,202,104,,2.,0.,0.,1.
$
$ LOAD CASE 3 - OPPOSING POINT LOADS AT CORNERS
$
FORCE,301,93,,2.,0.,0.,1.
FORCE,302,104,,2.,0.,0.,-1.
$ *******************************************************************
$  END OF BASIC MODEL DEFINITION
$ *******************************************************************
ENDDATA
