$
$
$ $ Created by MSC Apex Version 2021 on Jul 29, 2021 at 14:27:59
$
$ Values exported in this file are expressed using the consistent SI_K unit
$ system
$   Length m
$   Mass kg
$   Time s
$   Force N
$   Temperature K
$ NOTE: Nastran requires the following angle values always be defined in
$ degrees, while all other rotational quantities will be defined in terms of
$ radians
$ PCOMPG  (THETAi - ply orientation angle)
$ TABLED1 (yi - phase angle data when referenced in TP field of RLOAD2)
$
$ Linear Static Scenario Static Scenario 1
$ Scenario description
SOL 101
CEND
$
$ Output Requests
$
$ Displacement
DISP(PLOT) = ALL
$ Element Stress
STRESS(PLOT,VONMISES,CORNER) = ALL
$ Applied Loads
OLOAD(PLOT) = ALL
$ SPC Forces
SPCFORCES(PLOT) = ALL
$ Grid Point Force
GPFORCE(PLOT) = ALL
PARAM,AUTOMSET,YES
$ Automatic Stiffness Singularity Constraints
AUTOSPC(NOPRINT) = YES
$ Attachment Forces
MPCFORCES(SORT1,PLOT) = ALL
PARAM,PRTMAXIM,YES
$ OUTPUT2 Results file
PARAM,POST,1
$ Event name: Event 1
$ Event description:
SUBCASE 1
 SUBTITLE=Event 1
 SPC = 6
 LOAD = 1
BEGIN BULK
$
$
$ Part Part_1
$
$       2       3       4       5       6       7       8       9      0
$
$
$ Flexible Link: Connector 1
CBAR    129     2       253     254     1.      0.      0.      BGG
CHEXA   1       1       5       17      1       4       35      99      +
+       69      60
CHEXA   2       1       6       18      17      5       36      102     +
+       99      35
CHEXA   3       1       7       19      18      6       37      105     +
+       102     36
CHEXA   4       1       8       9       19      7       38      45      +
+       105     37
CHEXA   5       1       17      20      2       1       99      108     +
+       68      69
CHEXA   6       1       18      21      20      17      102     111     +
+       108     99
CHEXA   7       1       19      22      21      18      105     114     +
+       111     102
CHEXA   8       1       9       10      22      19      45      48      +
+       114     105
CHEXA   9       1       20      23      3       2       108     117     +
+       67      68
CHEXA   10      1       21      24      23      20      111     120     +
+       117     108
CHEXA   11      1       22      25      24      21      114     123     +
+       120     111
CHEXA   12      1       10      11      25      22      48      51      +
+       123     114
CHEXA   13      1       23      16      13      3       117     87      +
+       78      67
CHEXA   14      1       24      15      16      23      120     84      +
+       87      117
CHEXA   15      1       25      14      15      24      123     81      +
+       84      120
CHEXA   16      1       11      12      14      25      51      72      +
+       81      123
CHEXA   17      1       35      99      69      60      32      100     +
+       66      59
CHEXA   18      1       36      102     99      35      33      103     +
+       100     32
CHEXA   19      1       37      105     102     36      34      106     +
+       103     33
CHEXA   20      1       38      45      105     37      39      46      +
+       106     34
$ ... 216 like lines cut
$ Grav: Gravity 1
GRAV    1               9.80665 0.      0.      -1.
GRID    1               .2      0.      .15
GRID    2               .2      0.      .09999
GRID    3               .2      0.      .04998
GRID    4               .2      0.      .2
GRID    5               .2      .05     .2
GRID    6               .2      .10001  .2
GRID    7               .2      .15002  .2
GRID    8               .2      .2      .2
GRID    9               .2      .2      .15
GRID    10              .2      .2      .09999
GRID    11              .2      .2      .04998
GRID    12              .2      .2      0.
GRID    13              .2      0.      0.
GRID    14              .2      .15     0.
GRID    15              .2      .09999  0.
GRID    16              .2      .04998  0.
GRID    17              .2      .049995 .15
GRID    18              .2      .100005 .15
GRID    19              .2      .150015 .15
GRID    20              .2      .04999  .09999
$ ... 232 like lines cut
$ Material Record: Aluminum_ENAW_6063-T6_(EXTRUDED
MAT1    3       6.9+10          .33     2700.
$ Connector properties for Flexible Link: Connector 1
PBARL   2       3               ROD                                     +
+       .005
$ Elements and Element Properties for Body: Mesh_1
PSOLID  1       3
RBE2    132     253     123456  4       5       6       7       8       +
+       26      27      28      29      30      31      32      33      +
+       34      35      36      37      38      39      40      41      +
+       57      58      59      60
RBE2    133     254     123456  126     127     128     129     138     +
+       195     196     197     198     199     200     201     202     +
+       203     204     205     206     207     208     209     210     +
+       211     212     213     214
$ Constraint: Constraint_definition
SPC     1       12      123456
SPC     1       13      123456
SPC     1       14      123456
SPC     1       15      123456
SPC     1       16      123456
SPC     1       70      123456
SPC     1       71      123456
SPC     1       72      123456
SPC     1       73      123456
SPC     1       74      123456
SPC     1       75      123456
SPC     1       76      123456
SPC     1       77      123456
SPC     1       78      123456
SPC     1       79      123456
SPC     1       80      123456
SPC     1       81      123456
SPC     1       82      123456
SPC     1       83      123456
SPC     1       84      123456
$ ... 5 like lines cut
$ Constraint: Constraint_definition (2)
SPC     2       133     12
SPC     2       182     12
SPC     2       183     12
SPC     2       184     12
SPC     2       185     12
$ Constraint: Constraint_definition (3)
SPC     3       151     12
SPC     3       152     12
SPC     3       153     12
SPC     3       166     12
SPC     3       182     12
$ Constraint: Constraint_definition (4)
SPC     4       133     12
SPC     4       134     12
SPC     4       135     12
SPC     4       136     12
SPC     4       137     12
$ Constraint: Constraint_definition (5)
SPC     5       137     12
SPC     5       163     12
SPC     5       164     12
SPC     5       165     12
SPC     5       166     12
$ This constraint collection references the following Constraints
$ 2- Constraint Constraint 2
$ 3- Constraint Constraint 3
$ 4- Constraint Constraint 4
$ 5- Constraint Constraint 5
$ 1- Constraint Constraint 1
SPCADD  6       2       3       4       5       1
MDLPRM  OFFDEF  LROFF
PARAM   WTMASS  1.
ENDDATA
