                                                                                                                 
0        N A S T R A N    F I L E    A N D    S Y S T E M    P A R A M E T E R    E C H O                       
0                                                                                                              
                                                                                                              
                                                                                                             
     NASTRAN BUFFSIZE=2049                                                          
                                                                                   
                                                                                  
     SOL 103                                                                     
     CEND                                                                       
                                                                               
0                                                                                                                                   
0                                        C A S E    C O N T R O L   D E C K   E C H O       
                 CARD                                                                      
                 COUNT                                                                    
                  1      ECHO  = SORTED                                                  
                  2      DISP=ALL                                                       
                  3      METHOD  = 20                                                                            
                  4      SPC = 10                                                                                
                  5      BEGIN BULK                                                                              
0                             INPUT BULK DATA CARD COUNT =      47
                                                                                                                                    
0                                                                                                                                   
0                                                 S O R T E D   B U L K   D A T A   E C H O                                         
                 CARD                                                                                                               
                 COUNT        .   1  ..   2  ..   3  ..   4  ..   5  ..   6  ..   7  ..   8  ..   9  ..  10  .                      
                    1-        ASET1   2       10404                                                           
                    2-        ASET1   3       10101   THRU    10104                                           
                    3-        ASET1   3       10201   THRU    10204                                           
                    4-        ASET1   3       10301   THRU    10304                                           
                    5-        ASET1   3       10401   THRU    10403                                           
                    6-        CBAR    1010    1010    10102   20000   10101                                   
                    7-        CORD2R  111             0.0     0.0     0.0     0.0     3.28    0.0     +C1     
                    8-        +C1     1.0     0.0     0.0                                                     
                    9-        CQUAD4  1001    1000    10101   10102   10202   10201                           
                   10-        CQUAD4  1002    1000    10102   10103   10203   10202                           
                   11-        CQUAD4  1003    1000    10103   10104   10204   10203                           
                   12-        CQUAD4  1004    1000    10201   10202   10302   10301                           
                   13-        CQUAD4  1005    1000    10202   10203   10303   10302                           
                   14-        CQUAD4  1006    1000    10203   10204   10304   10303                           
                   15-        CQUAD4  1007    1000    10301   10302   10402   10401                           
                   16-        CQUAD4  1008    1000    10302   10303   10403   10402                           
                   17-        CQUAD4  1009    1000    10303   10304   10404   10403                           
                   18-        EIGRL   20                      5                                               
                   19-        GRID    10101           +30.    0.0     0.0                                     
                   20-        GRID    10102           +30.    33.333  0.0                                     
                   21-        GRID    10103           +30.    66.667  0.0                                     
                   22-        GRID    10104           +30.    100.000 0.0                                     
                   23-        GRID    10201           +53.333 16.667  0.0                                     
                   24-        GRID    10202           +53.333 44.444  0.0                                     
                   25-        GRID    10203           +53.333 72.222  0.0                                     
                   26-        GRID    10204           +53.333 100.000 0.0                                     
                   27-        GRID    10301           +76.667 33.333  0.0                                     
                   28-        GRID    10302           +76.667 55.555  0.0                                     
                   29-        GRID    10303           +76.667 77.778  0.0                                     
                   30-        GRID    10304           +76.667 100.000 0.0                                     
                   31-        GRID    10401           +100.   50.000  0.0                                     
                   32-        GRID    10402           +100.   66.667  0.0                                     
                   33-        GRID    10403           +100.   83.333  0.0                                     
                   34-        GRID    10404           +100.   100.000 0.0     111                             
                   35-        GRID    20000           0.      33.333  0.0                                     
                   36-        MAT1    1100    1.E+07          .3      .1                                      
                   37-        PARAM   COUPMASS1                                                               
                   38-        PARAM   WTMASS  .00259                                                          
                   39-        PBAR    1010    1100    100.    .1E+04  .1E+04  .05E+04                         
                   40-        PSHELL  1000    1100    1.5     1100                                            
                   41-        SPC1    10      15      10404                                                   
                   42-        SPC1    10      16      10101   THRU    10104                                   
                   43-        SPC1    10      16      10201   THRU    10204                                   
                   44-        SPC1    10      16      10301   THRU    10304                                   
                   45-        SPC1    10      16      10401   THRU    10403                                   
                   46-        SPC1    10      123456  20000                                                   
                              ENDDATA 
0                       TOTAL COUNT=        47
 *** SYSTEM INFORMATION MESSAGE 6916 (DFMSYN)
     DECOMP ORDERING METHOD CHOSEN: BEND, ORDERING METHOD USED: BEND
 *** USER INFORMATION MESSAGE 5010 (LNCILD)
     STURM SEQUENCE DATA FOR EIGENVALUE EXTRACTION.
     TRIAL EIGENVALUE =  1.287797D+04, CYCLES =  1.806108D+01 NUMBER OF EIGENVALUES BELOW THIS VALUE =     2

 TABLE OF SHIFTS:  (LNNRIGL)
 SHIFT #        SHIFT VALUE         FREQUENCY, CYCLES     # EIGENVALUES BELOW    # NEW EIGENVALUES FOUND
     1.        1.2877966E+04          1.8061081E+01                 2                       16

                                                                                                                                    
0                                                                                                                                   
0


                          E I G E N V A L U E  A N A L Y S I S   S U M M A R Y   (READ MODULE) 



                                     BLOCK SIZE USED ......................    7

                                     NUMBER OF DECOMPOSITIONS .............    1

                                     NUMBER OF ROOTS FOUND ................    5

                                     NUMBER OF SOLVES REQUIRED ............    5

                                                                                                                                    
0                                                                                                                                   
 
                                              R E A L   E I G E N V A L U E S
   MODE    EXTRACTION      EIGENVALUE            RADIANS             CYCLES            GENERALIZED         GENERALIZED
    NO.       ORDER                                                                       MASS              STIFFNESS
        1         1        8.399865E+02        2.898252E+01        4.612711E+00        1.000000E+00        8.399865E+02
        2         2        5.401589E+03        7.349551E+01        1.169717E+01        1.000000E+00        5.401589E+03
        3         3        4.316370E+04        2.077587E+02        3.306583E+01        1.000000E+00        4.316370E+04
        4         4        7.341672E+04        2.709552E+02        4.312386E+01        1.000000E+00        7.341672E+04
        5         5        2.008154E+05        4.481243E+02        7.132120E+01        1.000000E+00        2.008154E+05
                                                                                                                                    
0                                                                                                                                   
                                                                                                                                    
0                                                                                                                                   
      EIGENVALUE =  8.399865E+02
          CYCLES =  4.612711E+00         R E A L   E I G E N V E C T O R   N O .          1
 
      POINT ID.   TYPE          T1             T2             T3             R1             R2             R3
         10101      G      0.0            0.0            2.438916E-01  -1.388628E-02   1.046505E-03   0.0
         10102      G      0.0            0.0           -2.682208E-03  -6.512418E-04   1.641355E-04   0.0
         10103      G      0.0            0.0           -2.536763E-01  -1.385677E-02   1.233849E-02   0.0
         10104      G      0.0            0.0           -7.429644E-01  -1.528565E-02   1.128285E-02   0.0
         10201      G      0.0            0.0            4.281797E-02  -4.682182E-03   2.549300E-03   0.0
         10202      G      0.0            0.0           -2.088563E-01  -1.336013E-02   1.018326E-02   0.0
         10203      G      0.0            0.0           -6.013343E-01  -1.434578E-02   1.044415E-02   0.0
         10204      G      0.0            0.0           -1.016269E+00  -1.532579E-02   1.194192E-02   0.0
         10301      G      0.0            0.0           -2.736918E-01  -1.539033E-02   9.773146E-03   0.0
         10302      G      0.0            0.0           -6.082150E-01  -1.458461E-02   1.032532E-02   0.0
         10303      G      0.0            0.0           -9.465001E-01  -1.546269E-02   1.173877E-02   0.0
         10304      G      0.0            0.0           -1.292082E+00  -1.546714E-02   1.146654E-02   0.0
         10401      G      0.0            0.0           -7.746809E-01  -1.543930E-02   1.083210E-02   0.0
         10402      G      0.0            0.0           -1.037815E+00  -1.600222E-02   1.164881E-02   0.0
         10403      G      0.0            0.0           -1.304427E+00  -1.564861E-02   1.135552E-02   0.0
         10404      G      0.0            1.566373E+00   0.0           -1.563803E-02   0.0            1.190655E-02
         20000      G      0.0            0.0            0.0            0.0            0.0            0.0
                                                                                                                                    
0                                                                                                                                   
      EIGENVALUE =  5.401589E+03
          CYCLES =  1.169717E+01         R E A L   E I G E N V E C T O R   N O .          2
 
      POINT ID.   TYPE          T1             T2             T3             R1             R2             R3
         10101      G      0.0            0.0           -2.248838E-01   1.129584E-02   2.775307E-02   0.0
         10102      G      0.0            0.0           -5.626384E-03   1.306792E-03   3.665544E-04   0.0
         10103      G      0.0            0.0            7.584442E-01   4.288727E-02   2.015278E-02   0.0
         10104      G      0.0            0.0            2.027624E+00   3.250301E-02   3.048569E-02   0.0
         10201      G      0.0            0.0           -6.131099E-01   7.974025E-03   1.869456E-02   0.0
         10202      G      0.0            0.0           -2.231425E-01   1.968281E-02   2.759980E-02   0.0
         10203      G      0.0            0.0            4.212290E-01   2.596193E-02   2.518181E-02   0.0
         10204      G      0.0            0.0            1.302277E+00   3.677993E-02   3.147953E-02   0.0
         10301      G      0.0            0.0           -1.083220E+00   1.368388E-02   3.588441E-02   0.0
         10302      G      0.0            0.0           -6.909589E-01   2.168402E-02   3.148519E-02   0.0
         10303      G      0.0            0.0           -1.315537E-01   2.810665E-02   3.430069E-02   0.0
         10304      G      0.0            0.0            5.153657E-01   2.956726E-02   3.505625E-02   0.0
         10401      G      0.0            0.0           -1.624408E+00   2.199665E-02   3.543852E-02   0.0
         10402      G      0.0            0.0           -1.240496E+00   2.421410E-02   3.705165E-02   0.0
         10403      G      0.0            0.0           -8.081899E-01   2.723050E-02   3.638719E-02   0.0
         10404      G      0.0            3.356609E-01   0.0            2.898597E-02   0.0            3.727286E-02
         20000      G      0.0            0.0            0.0            0.0            0.0            0.0
                                                                                                                                    
0                                                                                                                                   
      EIGENVALUE =  4.316370E+04
          CYCLES =  3.306583E+01         R E A L   E I G E N V E C T O R   N O .          3
 
      POINT ID.   TYPE          T1             T2             T3             R1             R2             R3
         10101      G      0.0            0.0           -8.585293E-01   4.532157E-02   4.772991E-02   0.0
         10102      G      0.0            0.0           -4.092312E-02  -1.063501E-03   2.285311E-03   0.0
         10103      G      0.0            0.0           -6.611228E-01  -2.785009E-02  -3.340588E-04   0.0
         10104      G      0.0            0.0           -1.358505E+00  -1.239622E-02  -4.635419E-02   0.0
         10201      G      0.0            0.0           -1.117747E+00   3.023199E-02   2.147846E-02   0.0
         10202      G      0.0            0.0           -5.920185E-01   3.084039E-03   3.574188E-02   0.0
         10203      G      0.0            0.0           -5.350678E-01   7.068093E-03  -2.010099E-02   0.0
         10204      G      0.0            0.0           -2.898809E-01   1.145165E-02  -4.816738E-02   0.0
         10301      G      0.0            0.0           -1.326068E+00   1.657062E-02   2.839814E-02   0.0
         10302      G      0.0            0.0           -6.829033E-01   3.839550E-02  -9.244961E-03   0.0
         10303      G      0.0            0.0            1.475777E-01   3.879387E-02  -2.670205E-02   0.0
         10304      G      0.0            0.0            9.657666E-01   3.529658E-02  -5.703675E-02   0.0
         10401      G      0.0            0.0           -7.903178E-01   6.219073E-02  -1.441457E-02   0.0
         10402      G      0.0            0.0            2.571835E-01   6.048384E-02  -2.155319E-02   0.0
         10403      G      0.0            0.0            1.253393E+00   5.970822E-02  -4.181003E-02   0.0
         10404      G      0.0           -2.218969E+00   0.0            5.613626E-02   0.0           -4.735287E-02
         20000      G      0.0            0.0            0.0            0.0            0.0            0.0
                                                                                                                                    
0                                                                                                                                   
      EIGENVALUE =  7.341672E+04
          CYCLES =  4.312386E+01         R E A L   E I G E N V E C T O R   N O .          4
 
      POINT ID.   TYPE          T1             T2             T3             R1             R2             R3
         10101      G      0.0            0.0           -4.123309E+00   2.266406E-01  -2.694899E-04   0.0
         10102      G      0.0            0.0           -2.318701E-02   5.314526E-03   1.243020E-03   0.0
         10103      G      0.0            0.0            4.520594E-01   2.121695E-02   6.215813E-03   0.0
         10104      G      0.0            0.0            2.440502E-01  -3.096157E-02   3.207996E-02   0.0
         10201      G      0.0            0.0           -1.283839E+00   6.163387E-02  -3.459100E-02   0.0
         10202      G      0.0            0.0            1.576902E-01   3.170266E-02  -9.684119E-04   0.0
         10203      G      0.0            0.0            2.870014E-01  -2.288025E-02   6.443665E-03   0.0
         10204      G      0.0            0.0           -4.325946E-01  -2.622103E-02   2.493853E-02   0.0
         10301      G      0.0            0.0            2.637444E-01   2.357039E-02  -3.015133E-02   0.0
         10302      G      0.0            0.0            4.917885E-01  -9.793158E-03  -1.411954E-02   0.0
         10303      G      0.0            0.0            9.593081E-03  -3.343225E-02   4.840639E-03   0.0
         10304      G      0.0            0.0           -9.164144E-01  -4.736346E-02   1.701009E-02   0.0
         10401      G      0.0            0.0            9.870760E-01  -2.147435E-02  -2.619092E-02   0.0
         10402      G      0.0            0.0            5.199889E-01  -3.957807E-02  -9.901542E-03   0.0
         10403      G      0.0            0.0           -2.610622E-01  -5.313112E-02  -8.370100E-04   0.0
         10404      G      0.0            1.179375E+00   0.0           -5.455842E-02   0.0            7.177794E-03
         20000      G      0.0            0.0            0.0            0.0            0.0            0.0
                                                                                                                                    
0                                                                                                                                   
      EIGENVALUE =  2.008154E+05
          CYCLES =  7.132120E+01         R E A L   E I G E N V E C T O R   N O .          5
 
      POINT ID.   TYPE          T1             T2             T3             R1             R2             R3
         10101      G      0.0            0.0            1.976632E+00  -1.147041E-01   9.472703E-02   0.0
         10102      G      0.0            0.0           -2.276870E-02  -9.441336E-04   1.390012E-03   0.0
         10103      G      0.0            0.0            8.776556E-01   5.213426E-02   7.974713E-02   0.0
         10104      G      0.0            0.0            2.455836E+00   3.867267E-02   1.372054E-01   0.0
         10201      G      0.0            0.0           -7.512134E-01   3.071724E-03   4.105826E-02   0.0
         10202      G      0.0            0.0           -6.829810E-01   3.375415E-03   3.796132E-02   0.0
         10203      G      0.0            0.0           -5.347021E-01   6.255790E-03   3.837091E-02   0.0
         10204      G      0.0            0.0           -5.127236E-01  -7.154678E-03   9.846668E-02   0.0
         10301      G      0.0            0.0           -7.428587E-01   2.462126E-02  -2.160513E-02   0.0
         10302      G      0.0            0.0           -3.308228E-01   1.134401E-02  -6.036545E-02   0.0
         10303      G      0.0            0.0           -4.807106E-01  -2.519936E-02  -4.840772E-02   0.0
         10304      G      0.0            0.0           -1.450914E+00  -6.291359E-02  -2.149668E-02   0.0
         10401      G      0.0            0.0            1.687299E+00   3.960162E-02  -1.180740E-01   0.0
         10402      G      0.0            0.0            1.979366E+00  -8.102916E-03  -1.149720E-01   0.0
         10403      G      0.0            0.0            1.461685E+00  -5.380255E-02  -1.163374E-01   0.0
         10404      G      0.0           -3.300396E-01   0.0           -8.177724E-02   0.0           -1.111649E-01
         20000      G      0.0            0.0            0.0            0.0            0.0            0.0
