$ NASTRAN input file created by the MSC MSC.Nastran input file
$ translator ( MSC.Patran 14.0.019 ) on September 04, 2012 at 13:32:46.
$ Direct Text Input for Nastran System Cell Section
$ Linear Static Analysis, Non-database
SOL 1
CEND
TITLE = ANALYSE STATIQUE DU SUPPORT DE BOUTEILLE | OXYG|NE
ECHO = NONE
SUBCASE 1
$ Subcase name : ANALYSE_STATIQUE.SC1
   SUBTITLE=ANALYSE_STATIQUE.SC1
   SPC = 2
   LOAD = 5
   DISPLACEMENT(PLOT,SORT1,REAL)=ALL
   SPCFORCES(PLOT,SORT1,REAL)=ALL
   MPCFORCES(PLOT,SORT1,REAL)=ALL
   STRAIN(PLOT,SORT1,REAL,VONMISES,STRCUR,CENTER)=ALL
   STRESS(PLOT,SORT1,REAL,VONMISES,CENTER)=ALL
   FORCE(PLOT,SORT1,REAL,CENTER)=ALL
SUBCASE 2
$ Subcase name : ANALYSE_STATIQUE.SC2
   SUBTITLE=ANALYSE_STATIQUE.SC2
   SPC = 2
   LOAD = 7
   DISPLACEMENT(PLOT,SORT1,REAL)=ALL
   SPCFORCES(PLOT,SORT1,REAL)=ALL
   MPCFORCES(PLOT,SORT1,REAL)=ALL
   STRAIN(PLOT,SORT1,REAL,VONMISES,STRCUR,CENTER)=ALL
   STRESS(PLOT,SORT1,REAL,VONMISES,CENTER)=ALL
   FORCE(PLOT,SORT1,REAL,CENTER)=ALL
SUBCASE 3
$ Subcase name : ANALYSE_STATIQUE.SC3
   SUBTITLE=ANALYSE_STATIQUE.SC3
   SPC = 2
   LOAD = 9
   DISPLACEMENT(PLOT,SORT1,REAL)=ALL
   SPCFORCES(PLOT,SORT1,REAL)=ALL
   MPCFORCES(PLOT,SORT1,REAL)=ALL
   STRAIN(PLOT,SORT1,REAL,VONMISES,STRCUR,CENTER)=ALL
   STRESS(PLOT,SORT1,REAL,VONMISES,CENTER)=ALL
   FORCE(PLOT,SORT1,REAL,CENTER)=ALL
BEGIN BULK
PARAM    POST    0
PARAM    GRDPNT  0
PARAM,NOCOMPS,-1
PARAM   PRTMAXIM YES
$ Elements and Element Properties for region : pbar.21
PBAR     21      2      1070.2  6.9+6   6.9+6   1.38+7
$ Pset: "pbar.21" will be imported as: "pbar.21"
CBAR     3000    21      3000    3001    0.     1.       0.
CBAR     3001    21      3001    3002    0.     1.       0.
CBAR     3002    21      3002    3003    0.     1.       0.
CBAR     3003    21      3003    3004    0.     1.       0.
CBAR     3004    21      3004    3005    0.     1.       0.
CBAR     3005    21      3005    3006    0.     1.       0.
CBAR     3006    21      3006    3007    0.     1.       0.
CBAR     3007    21      3007    3008    0.     1.       0.
CBAR     3008    21      3008    3009    0.     1.       0.
CBAR     3009    21      3009    3010    0.     1.       0.
CBAR     3010    21      3010    3011    0.     1.       0.
CBAR     3011    21      3011    3012    0.     1.       0.
$ Elements and Element Properties for region : prod.14
CONROD   29000   29001   29002   3      53.4
$ Elements and Element Properties for region : pshell.1
PSHELL   1       1      1.2      1               1
$ Pset: "pshell.1" will be imported as: "pshell.1"
CTRIA3   1       1       316     399     394     0.      0.
CTRIA3   2       1       608     604     551     0.      0.
CTRIA3   3       1       140     596     600     0.      0.
CQUAD4   6       1       8021    1       615     8022    0.      0.
CQUAD4   7       1       8027    8021    1       25      0.      0.
CQUAD4   8       1       25      1       24      3       0.      0.
CQUAD4   9       1       28      8       27      26      0.      0.
CQUAD4   10      1       8026    28      26      8025    0.      0.
CQUAD4   11      1       8025    8022    615     26      0.      0.
CQUAD4   12      1       32      3       24      4       0.      0.
CQUAD4   13      1       31      32      4       29      0.      0.
CQUAD4   14      1       29      30      22      4       0.      0.
CQUAD4   15      1       35      7       27      8       0.      0.
CQUAD4   16      1       34      33      7       35      0.      0.
CQUAD4   17      1       7       22      30      33      0.      0.
CQUAD4   18      1       8028    36      617     8029    0.      0.
CQUAD4   19      1       8000    8028    36      4501    0.      0.
CQUAD4   20      1       4501    36      37      4500    0.      0.
CQUAD4   21      1       25      3       39      38      0.      0.
CQUAD4   22      1       8027    25      38      8030    0.      0.
CQUAD4   23      1       8030    8029    617     38      0.      0.
CQUAD4   24      1       4503    4500    37      6       0.      0.
CQUAD4   25      1       4502    4503    6       40      0.      0.
$ ... 44 like lines cut
CTRIA3   70      1       8043    621     8020    0.      0.
CQUAD4   71      1       8043    8042    620     621     0.      0.
CQUAD4   72      1       83      75      76      17      0.      0.
CQUAD4   73      1       82      83      17      80      0.      0.
CQUAD4   74      1       80      81      19      17      0.      0.
CQUAD4   75      1       86      18      79      78      0.      0.
CQUAD4   76      1       85      84      18      86      0.      0.
CQUAD4   77      1       18      19      81      84      0.      0.
CQUAD4   78      1       68      8040    8045    87      0.      0.
CQUAD4   79      1       73      88      89      72      0.      0.
CQUAD4   80      1       87      8045    8054    90      0.      0.
CQUAD4   81      1       90      8054    8053    91      0.      0.
CQUAD4   82      1       91      8053    8052    92      0.      0.
CQUAD4   83      1       92      8052    8051    93      0.      0.
CQUAD4   84      1       93      8051    8050    94      0.      0.
CQUAD4   85      1       94      8050    8049    95      0.      0.
CQUAD4   86      1       95      8049    8048    96      0.      0.
CQUAD4   87      1       96      8048    8047    97      0.      0.
CQUAD4   88      1       97      8047    8046    98      0.      0.
CQUAD4   89      1       99      101     104     103     0.      0.
CQUAD4   90      1       101     102     105     104     0.      0.
$ ... 832 like lines cut
$ Elements and Element Properties for region : pshell.2
PSHELL   2       1      1.2      1               1
$ Pset: "pshell.2" will be imported as: "pshell.2"
CQUAD4   4177    2       12252   12228   12159   32885   0.      0.
CQUAD4   4181    2       12159   32885   32886   12160   0.      0.
CTRIA3   4182    2       12160   32886   12161   0.      0.
CTRIA3   4183    2       12177   12178   12203   0.      0.
CTRIA3   4184    2       12128   12127   12152   0.      0.
CQUAD4   12000   2       12005   12006   12039   12038   0.      0.
CQUAD4   12001   2       12105   12106   12131   12130   0.      0.
CQUAD4   12002   2       12006   12007   12040   12039   0.      0.
CQUAD4   12003   2       12106   12107   12132   12131   0.      0.
CQUAD4   12004   2       12007   12008   12041   12040   0.      0.
CQUAD4   12005   2       12107   12108   12133   12132   0.      0.
CQUAD4   12006   2       12067   12033   12034   12069   0.      0.
CQUAD4   12007   2       12069   12070   12035   12034   0.      0.
CQUAD4   12008   2       12036   12068   12070   12035   0.      0.
CQUAD4   12009   2       32888   12071   12068   12036   0.      0.
CQUAD4   12010   2       12038   12072   12071   32888   0.      0.
CQUAD4   12011   2       12039   12073   12072   12038   0.      0.
CQUAD4   12012   2       12039   12040   12075   12073   0.      0.
CQUAD4   12013   2       12041   12040   12075   12074   0.      0.
CQUAD4   12014   2       12067   12069   12101   12100   0.      0.
CQUAD4   12015   2       12101   12069   12070   12102   0.      0.
CQUAD4   12016   2       12102   12103   12068   12070   0.      0.
CQUAD4   12017   2       12068   12071   12104   12103   0.      0.
CQUAD4   12018   2       12071   12072   12105   12104   0.      0.
CQUAD4   12019   2       12072   12073   12106   12105   0.      0.
$ ... 89 like lines cut
CTRIA3   12110   2       12097   12096   12099   0.      0.
CQUAD4   12111   2       12155   12103   12104   12156   0.      0.
CQUAD4   12112   2       12156   12104   12105   12130   0.      0.
CQUAD4   12113   2       12157   12100   12101   12154   0.      0.
CQUAD4   12114   2       12154   12101   12102   12158   0.      0.
CQUAD4   12115   2       12158   12102   12103   12155   0.      0.
CQUAD4   12116   2       12033   12000   12001   12034   0.      0.
CQUAD4   12117   2       12034   12001   12002   12035   0.      0.
CQUAD4   12118   2       12035   12002   12003   12036   0.      0.
CQUAD4   12119   2       12036   12003   12004   32888   0.      0.
CQUAD4   12120   2       32888   12004   12005   12038   0.      0.
CQUAD4   12121   2       12000   12001   12162   12166   0.      0.
CTRIA3   12122   2       12166   12162   12188   0.      0.
CQUAD4   12123   2       12162   12163   12189   12188   0.      0.
CQUAD4   12124   2       12189   12190   12164   12163   0.      0.
CQUAD4   12125   2       12163   12002   12001   12162   0.      0.
CQUAD4   12126   2       12163   12164   12003   12002   0.      0.
CQUAD4   12127   2       12190   12191   12165   12164   0.      0.
CQUAD4   12128   2       12164   12165   12004   12003   0.      0.
CQUAD4   12129   2       12191   12192   12167   12165   0.      0.
CQUAD4   12130   2       12165   12167   12005   12004   0.      0.
CQUAD4   12131   2       12192   12193   12168   12167   0.      0.
CQUAD4   12132   2       12167   12168   12006   12005   0.      0.
CQUAD4   12133   2       12193   12194   12169   12168   0.      0.
CQUAD4   12134   2       12168   12169   12007   12006   0.      0.
CQUAD4   12135   2       12194   12195   12174   12169   0.      0.
CQUAD4   12136   2       12169   12174   12008   12007   0.      0.
CQUAD4   12137   2       12195   12196   12170   12174   0.      0.
CQUAD4   12138   2       12170   12009   12008   12174   0.      0.
CQUAD4   12139   2       12196   12197   12171   12170   0.      0.
CQUAD4   12140   2       12171   12010   12009   12170   0.      0.
CQUAD4   12141   2       12197   12198   12172   12171   0.      0.
CQUAD4   12142   2       12171   12172   12011   12010   0.      0.
$ ... 27 like lines cut
CTRIA3   12172   2       12300   12210   12234   0.      0.
CQUAD4   12173   2       12234   12235   12211   12210   0.      0.
CQUAD4   12174   2       12210   12211   12158   12154   0.      0.
CQUAD4   12175   2       12235   12236   12212   12211   0.      0.
CQUAD4   12176   2       12211   12212   12155   12158   0.      0.
CQUAD4   12177   2       12236   12237   12213   12212   0.      0.
CQUAD4   12178   2       12212   12213   12156   12155   0.      0.
CQUAD4   12179   2       12237   12238   12214   12213   0.      0.
CQUAD4   12180   2       12213   12214   12130   12156   0.      0.
CQUAD4   12181   2       12238   12239   12215   12214   0.      0.
CQUAD4   12182   2       12214   12215   12131   12130   0.      0.
CQUAD4   12183   2       12239   12240   12216   12215   0.      0.
CQUAD4   12184   2       12215   12216   12132   12131   0.      0.
CQUAD4   12185   2       12240   12241   12217   12216   0.      0.
CQUAD4   12186   2       12216   12217   12133   12132   0.      0.
CQUAD4   12187   2       12241   12242   12218   12217   0.      0.
CQUAD4   12188   2       12217   12218   12134   12133   0.      0.
CQUAD4   12189   2       12242   12243   12219   12218   0.      0.
CQUAD4   12190   2       12218   12219   12135   12134   0.      0.
CQUAD4   12191   2       12243   12244   12220   12219   0.      0.
CQUAD4   12192   2       12219   12220   12136   12135   0.      0.
$ ... 60 like lines cut
CTRIA3   12263   2       12128   12152   12129   0.      0.
CQUAD4   24000   2       24022   24023   24024   24025   0.      0.
CQUAD4   24001   2       24021   24025   24024   24026   0.      0.
CQUAD4   24002   2       24021   24026   24027   24028   0.      0.
CQUAD4   24003   2       24026   24029   24030   24027   0.      0.
CQUAD4   24004   2       24029   24031   24032   24030   0.      0.
CTRIA3   24005   2       24015   24016   24033   0.      0.
CQUAD4   24006   2       24014   24028   24033   24015   0.      0.
CQUAD4   24007   2       24006   24007   24038   24039   0.      0.
CQUAD4   24008   2       24039   24017   24018   24040   0.      0.
CQUAD4   24009   2       24040   24041   24038   24039   0.      0.
CQUAD4   24010   2       24040   24018   24019   24042   0.      0.
CQUAD4   24011   2       24041   24043   24042   24040   0.      0.
CQUAD4   24012   2       24042   24019   24020   24044   0.      0.
CQUAD4   24013   2       24044   24042   24043   24045   0.      0.
CQUAD4   24014   2       24046   24044   24045   24047   0.      0.
CQUAD4   24015   2       24007   24008   24048   24038   0.      0.
CQUAD4   24016   2       24048   24049   24041   24038   0.      0.
CQUAD4   24017   2       24049   24050   24043   24041   0.      0.
CQUAD4   24018   2       24050   24051   24045   24043   0.      0.
CQUAD4   24019   2       24051   24052   24047   24045   0.      0.
CQUAD4   24020   2       24008   24009   24054   24048   0.      0.
CQUAD4   24021   2       24054   24055   24049   24048   0.      0.
CQUAD4   24022   2       24049   24055   24056   24050   0.      0.
CQUAD4   24023   2       24050   24056   24022   24051   0.      0.
CQUAD4   24024   2       24051   24022   24025   24052   0.      0.
CQUAD4   24025   2       24052   24025   24021   24053   0.      0.
CQUAD4   24026   2       24014   24053   24021   24028   0.      0.
CTRIA3   24027   2       24012   24046   24013   0.      0.
CQUAD4   24028   2       24046   24047   24014   24013   0.      0.
CQUAD4   24029   2       24047   24052   24053   24014   0.      0.
CQUAD4   24030   2       24009   24010   24057   24054   0.      0.
CQUAD4   24031   2       24054   24057   24058   24055   0.      0.
CQUAD4   24032   2       24055   24058   24059   24056   0.      0.
CQUAD4   24033   2       24011   24060   24057   24010   0.      0.
CQUAD4   24034   2       24058   24057   24060   24061   0.      0.
CQUAD4   24035   2       24058   24061   24062   24059   0.      0.
CQUAD4   24036   2       24011   24063   24064   24060   0.      0.
CQUAD4   24037   2       24060   24064   24065   24061   0.      0.
CQUAD4   24038   2       24061   24065   24066   24062   0.      0.
CQUAD4   24039   2       24056   24059   24023   24022   0.      0.
CQUAD4   24040   2       24062   24067   24023   24059   0.      0.
CQUAD4   24041   2       24062   24066   24068   24067   0.      0.
CQUAD4   24042   2       24065   24069   24078   24066   0.      0.
CQUAD4   24043   2       24069   24070   24077   24078   0.      0.
CQUAD4   24044   2       24070   24071   24075   24077   0.      0.
CQUAD4   24045   2       24071   24072   24076   24075   0.      0.
CQUAD4   24046   2       24072   24073   24074   24076   0.      0.
CQUAD4   24047   2       24066   24078   24083   24068   0.      0.
$ ... 153 like lines cut
CTRIA3   24201   2       24004   24202   24207   0.      0.
CTRIA3   24202   2       24207   24208   24003   0.      0.
CTRIA3   24203   2       24003   24213   24219   0.      0.
CTRIA3   24204   2       24219   24220   24002   0.      0.
CTRIA3   24205   2       24002   24229   24000   0.      0.
CTRIA3   24206   2       24000   24246   24001   0.      0.
CTRIA3   24207   2       24249   24250   24251   0.      0.
CQUAD4   24208   2       24252   24253   24254   24255   0.      0.
CQUAD4   24209   2       24255   24254   24256   24257   0.      0.
CQUAD4   24210   2       24257   24255   24258   24259   0.      0.
CQUAD4   24211   2       24259   24260   24261   24258   0.      0.
CQUAD4   24212   2       24259   24017   24018   24260   0.      0.
CQUAD4   24213   2       24260   24018   24019   24262   0.      0.
CQUAD4   24214   2       24262   24019   24020   24263   0.      0.
CQUAD4   24215   2       24262   24250   24261   24260   0.      0.
CQUAD4   24216   2       24261   24264   24249   24250   0.      0.
CQUAD4   24217   2       24250   24262   24263   24251   0.      0.
CQUAD4   24218   2       24261   24258   24265   24264   0.      0.
CQUAD4   24219   2       24265   24258   24255   24252   0.      0.
CTRIA3   24220   2       24257   24259   24017   0.      0.
CQUAD4   24221   2       24266   24273   24278   24267   0.      0.
CQUAD4   24222   2       24273   24274   24279   24278   0.      0.
CQUAD4   24223   2       24274   24275   24280   24279   0.      0.
CQUAD4   24224   2       24275   24276   24281   24280   0.      0.
CQUAD4   24225   2       24276   24277   24282   24281   0.      0.
CQUAD4   24226   2       24277   24006   24007   24282   0.      0.
CQUAD4   24227   2       24267   24278   24283   24268   0.      0.
CQUAD4   24228   2       24278   24279   24284   24283   0.      0.
CQUAD4   24229   2       24279   24280   24285   24284   0.      0.
CQUAD4   24230   2       24280   24281   24286   24285   0.      0.
CQUAD4   24231   2       24281   24282   24287   24286   0.      0.
CQUAD4   24232   2       24282   24007   24008   24287   0.      0.
CQUAD4   24233   2       24268   24283   24288   24269   0.      0.
CQUAD4   24234   2       24283   24284   24289   24288   0.      0.
CQUAD4   24235   2       24284   24285   24290   24289   0.      0.
CQUAD4   24236   2       24285   24286   24291   24290   0.      0.
CQUAD4   24237   2       24286   24287   24292   24291   0.      0.
CQUAD4   24238   2       24287   24008   24009   24292   0.      0.
CQUAD4   24239   2       24269   24288   24293   24270   0.      0.
CQUAD4   24240   2       24288   24289   24294   24293   0.      0.
$ ... 26 like lines cut
CTRIA3   24267   2       24308   24309   24310   0.      0.
CTRIA3   24268   2       24317   24319   24318   0.      0.
CQUAD4   24269   2       24325   24326   24327   24320   0.      0.
CQUAD4   24270   2       24326   24328   24329   24327   0.      0.
CQUAD4   24271   2       24327   24330   24321   24320   0.      0.
CQUAD4   24272   2       24330   24327   24329   24331   0.      0.
CQUAD4   24273   2       24329   24332   24333   24331   0.      0.
CQUAD4   24274   2       24334   24335   24000   24001   0.      0.
CQUAD4   24275   2       24000   24002   24336   24335   0.      0.
CQUAD4   24276   2       24332   24335   24336   24333   0.      0.
CQUAD4   24277   2       24324   24323   24337   24341   0.      0.
CQUAD4   24278   2       24337   24338   24342   24341   0.      0.
CQUAD4   24279   2       24338   24339   24343   24342   0.      0.
CQUAD4   24280   2       24339   24340   24344   24343   0.      0.
CQUAD4   24281   2       24340   24004   24005   24344   0.      0.
CQUAD4   24282   2       24337   24323   24345   24346   0.      0.
CQUAD4   24283   2       24337   24346   24347   24338   0.      0.
CQUAD4   24284   2       24338   24347   24348   24339   0.      0.
CQUAD4   24285   2       24348   24349   24340   24339   0.      0.
CQUAD4   24286   2       24349   24340   24004   24207   0.      0.
CQUAD4   24287   2       24349   24350   24003   24207   0.      0.
CQUAD4   24288   2       24349   24348   24351   24350   0.      0.
$ ... 39 like lines cut
CTRIA3   24328   2       24385   24395   24386   0.      0.
CTRIA3   24329   2       24360   24365   24359   0.      0.
CTRIA3   24330   2       24371   24370   24372   0.      0.
CTRIA3   24331   2       24392   24390   24388   0.      0.
CQUAD4   24332   2       24320   24377   24368   24378   0.      0.
CTRIA3   24333   2       24323   24383   24345   0.      0.
CTRIA3   24334   2       24345   24383   24322   0.      0.
CTRIA3   24335   2       24322   24381   24354   0.      0.
CTRIA3   24336   2       24354   24381   24321   0.      0.
CTRIA3   24337   2       24321   24377   24320   0.      0.
CQUAD4   24338   2       24396   24397   24402   24401   0.      0.
CQUAD4   24339   2       24397   24398   24403   24402   0.      0.
CQUAD4   24340   2       24398   24399   24404   24403   0.      0.
CQUAD4   24341   2       24399   24400   24405   24404   0.      0.
CQUAD4   24342   2       24401   24402   24407   24406   0.      0.
CQUAD4   24343   2       24402   24403   24408   24407   0.      0.
CQUAD4   24344   2       24403   24404   24409   24408   0.      0.
CQUAD4   24345   2       24404   24405   24410   24409   0.      0.
CQUAD4   24346   2       24406   24407   24412   24411   0.      0.
CQUAD4   24347   2       24407   24408   24413   24412   0.      0.
CQUAD4   24348   2       24408   24409   24414   24413   0.      0.
CQUAD4   24349   2       24409   24410   24415   24414   0.      0.
CQUAD4   24350   2       24411   24412   24417   24416   0.      0.
CQUAD4   24351   2       24412   24413   24418   24417   0.      0.
CQUAD4   24352   2       24413   24414   24419   24418   0.      0.
CQUAD4   24353   2       24414   24415   24420   24419   0.      0.
CQUAD4   24354   2       24416   24417   24013   24012   0.      0.
CQUAD4   24355   2       24417   24418   24014   24013   0.      0.
CQUAD4   24356   2       24418   24419   24015   24014   0.      0.
CQUAD4   24357   2       24419   24420   24016   24015   0.      0.
$ ... 50 like lines cut
$ Elements and Element Properties for region : pshell.3
PSHELL   3       1      1.2      1               1
$ Pset: "pshell.3" will be imported as: "pshell.3"
CQUAD4   14000   3       14026   14027   14024   14023   0.      0.
CQUAD4   14001   3       14024   14019   14018   14023   0.      0.
CQUAD4   14002   3       14018   14019   14007   14006   0.      0.
CQUAD4   14003   3       14028   14027   14033   14032   0.      0.
CQUAD4   14004   3       14027   14024   14034   14028   0.      0.
CQUAD4   14005   3       14034   14024   14019   14020   0.      0.
CQUAD4   14006   3       14020   14019   14007   14008   0.      0.
CQUAD4   14007   3       14034   14028   14029   14025   0.      0.
CTRIA3   14008   3       14007   14006   14000   0.      0.
CTRIA3   14009   3       14001   14000   14014   0.      0.
CQUAD4   14010   3       14008   14007   14000   14001   0.      0.
CQUAD4   14011   3       14001   14002   14015   14014   0.      0.
CQUAD4   14012   3       14001   14008   14009   14002   0.      0.
CQUAD4   14013   3       14002   14015   14016   14003   0.      0.
CQUAD4   14014   3       14003   14002   14009   14010   0.      0.
CQUAD4   14015   3       14010   14011   14004   14003   0.      0.
CQUAD4   14016   3       14003   14016   14017   14004   0.      0.
CQUAD4   14017   3       14004   14005   14031   14011   0.      0.
CQUAD4   14018   3       14011   14010   14021   14022   0.      0.
CQUAD4   14019   3       14008   14009   14035   14020   0.      0.
CQUAD4   14020   3       14020   14035   14025   14034   0.      0.
CQUAD4   14021   3       14035   14009   14010   14021   0.      0.
CQUAD4   14022   3       14021   14030   14025   14035   0.      0.
CTRIA3   14023   3       14030   14021   14022   0.      0.
CTRIA3   14024   3       14030   14029   14025   0.      0.
CQUAD4   14025   3       14037   14026   14027   14033   0.      0.
CQUAD4   14026   3       14004   14017   14036   14005   0.      0.
CTRIA3   14027   3       14011   14022   14031   0.      0.
CTRIA3   14028   3       14028   14032   14029   0.      0.
CQUAD4   14029   3       14038   14031   14022   14039   0.      0.
CQUAD4   14030   3       14039   14022   14030   14041   0.      0.
CQUAD4   14031   3       14041   14030   14029   14043   0.      0.
CQUAD4   14032   3       14043   14029   14032   14045   0.      0.
CQUAD4   14033   3       14047   14038   14039   14048   0.      0.
CQUAD4   14034   3       14048   14039   14041   14049   0.      0.
CQUAD4   14035   3       14049   14041   14043   14050   0.      0.
CQUAD4   14036   3       14050   14043   14045   14051   0.      0.
CQUAD4   14500   3       14524   14535   14522   14521   0.      0.
CQUAD4   14501   3       14522   14517   14516   14521   0.      0.
CQUAD4   14502   3       14516   14517   14507   14506   0.      0.
CQUAD4   14503   3       14525   14535   14530   14529   0.      0.
CQUAD4   14504   3       14535   14522   14531   14525   0.      0.
CQUAD4   14505   3       14531   14522   14517   14518   0.      0.
CQUAD4   14506   3       14518   14517   14507   14508   0.      0.
CQUAD4   14507   3       14531   14525   14526   14523   0.      0.
CQUAD4   14508   3       14508   14507   14500   14501   0.      0.
CQUAD4   14509   3       14501   14502   14513   14512   0.      0.
CQUAD4   14510   3       14501   14508   14509   14502   0.      0.
CQUAD4   14511   3       14502   14513   14514   14503   0.      0.
$ ... 9 like lines cut
CTRIA3   14521   3       14527   14519   14520   0.      0.
CTRIA3   14522   3       14527   14526   14523   0.      0.
CQUAD4   14523   3       14534   14524   14535   14530   0.      0.
CQUAD4   14524   3       14504   14515   14533   14505   0.      0.
CTRIA3   14525   3       14500   14507   14536   0.      0.
CTRIA3   14526   3       14536   14507   14506   0.      0.
CTRIA3   14527   3       14500   14537   14501   0.      0.
CTRIA3   14528   3       14501   14512   14537   0.      0.
CTRIA3   14529   3       14528   14511   14520   0.      0.
CTRIA3   14530   3       14526   14525   14529   0.      0.
CQUAD4   14531   3       14538   14539   14520   14528   0.      0.
CQUAD4   14532   3       14539   14540   14527   14520   0.      0.
CQUAD4   14533   3       14540   14541   14526   14527   0.      0.
CQUAD4   14534   3       14541   14542   14529   14526   0.      0.
CQUAD4   14535   3       14548   14549   14539   14538   0.      0.
CQUAD4   14536   3       14549   14550   14540   14539   0.      0.
CQUAD4   14537   3       14550   14551   14541   14540   0.      0.
CQUAD4   14538   3       14551   14552   14542   14541   0.      0.
$ Elements and Element Properties for region : pshell.4
PSHELL   4       1      1.2      1               1
$ Pset: "pshell.4" will be imported as: "pshell.4"
CQUAD4   18000   4       18006   18038   18004   18003   0.      0.
CQUAD4   18001   4       18007   18039   18038   18006   0.      0.
CQUAD4   18002   4       18008   18040   18039   18007   0.      0.
CQUAD4   18003   4       18009   18041   18040   18008   0.      0.
CQUAD4   18004   4       18010   18042   18041   18009   0.      0.
CQUAD4   18005   4       18011   18043   18042   18010   0.      0.
CQUAD4   18006   4       18012   18044   18043   18011   0.      0.
CQUAD4   18007   4       18013   18045   18044   18012   0.      0.
CQUAD4   18008   4       18014   18046   18045   18013   0.      0.
CQUAD4   18009   4       18015   18047   18046   18014   0.      0.
CQUAD4   18010   4       18005   18048   18047   18015   0.      0.
CQUAD4   18011   4       18017   18049   18048   18005   0.      0.
CQUAD4   18012   4       18016   18050   18049   18017   0.      0.
CQUAD4   18013   4       18019   18051   18050   18016   0.      0.
CQUAD4   18014   4       18018   18052   18051   18019   0.      0.
CQUAD4   18015   4       18021   18053   18052   18018   0.      0.
CQUAD4   18016   4       18022   18054   18053   18021   0.      0.
CQUAD4   18017   4       18023   18055   18054   18022   0.      0.
CQUAD4   18018   4       18024   18056   18055   18023   0.      0.
CQUAD4   18019   4       18025   18057   18056   18024   0.      0.
$ ... 92 like lines cut
CTRIA3   18112   4       18089   18052   18051   0.      0.
CTRIA3   18113   4       18051   18089   18050   0.      0.
$ Elements and Element Properties for region : pshell.5
PSHELL   5       1      1.6      1               1
$ Pset: "pshell.5" will be imported as: "pshell.5"
CQUAD4   20000   5       20000   20001   20009   20008   0.      0.
CQUAD4   20001   5       20001   20002   20010   20009   0.      0.
CQUAD4   20002   5       20002   20003   20011   20010   0.      0.
CQUAD4   20003   5       20003   20004   20012   20011   0.      0.
CQUAD4   20004   5       20004   20079   20013   20012   0.      0.
CQUAD4   20005   5       20079   20082   20014   20013   0.      0.
CQUAD4   20006   5       20082   20085   20015   20014   0.      0.
CQUAD4   20007   5       20085   20088   20016   20015   0.      0.
CQUAD4   20008   5       20015   20017   20021   20014   0.      0.
CQUAD4   20009   5       20017   20018   20022   20021   0.      0.
CQUAD4   20010   5       20018   20019   20023   20022   0.      0.
CQUAD4   20011   5       20019   20020   20024   20023   0.      0.
CQUAD4   20012   5       20014   20021   20025   20013   0.      0.
CQUAD4   20013   5       20021   20022   20026   20025   0.      0.
CQUAD4   20014   5       20022   20023   20027   20026   0.      0.
CQUAD4   20015   5       20023   20024   20028   20027   0.      0.
CQUAD4   20016   5       20013   20025   20029   20012   0.      0.
CQUAD4   20017   5       20025   20026   20030   20029   0.      0.
CQUAD4   20018   5       20026   20027   20031   20030   0.      0.
CQUAD4   20019   5       20027   20028   20032   20031   0.      0.
$ ... 19 like lines cut
CTRIA3   20039   5       20019   20051   20020   0.      0.
CQUAD4   20040   5       20007   20000   20008   20052   0.      0.
CQUAD4   20041   5       20052   20008   20045   20053   0.      0.
CQUAD4   20042   5       20053   20045   20046   20054   0.      0.
CQUAD4   20043   5       20054   20046   20047   20055   0.      0.
CQUAD4   20044   5       20055   20047   20048   20056   0.      0.
CTRIA3   20045   5       20005   20093   20058   0.      0.
CQUAD4   20046   5       20093   20058   20059   20096   0.      0.
CQUAD4   20047   5       20096   20059   20060   20099   0.      0.
CQUAD4   20048   5       20099   20060   20061   20006   0.      0.
CQUAD4   20049   5       20006   20061   20052   20007   0.      0.
CQUAD4   20050   5       20061   20062   20053   20052   0.      0.
CQUAD4   20051   5       20061   20062   20063   20060   0.      0.
CQUAD4   20052   5       20060   20059   20064   20063   0.      0.
CQUAD4   20053   5       20063   20065   20066   20062   0.      0.
CQUAD4   20054   5       20062   20066   20054   20053   0.      0.
CQUAD4   20055   5       20066   20057   20055   20054   0.      0.
CTRIA3   20056   5       20058   20059   20064   0.      0.
CTRIA3   20057   5       20064   20063   20065   0.      0.
CTRIA3   20058   5       20065   20066   20057   0.      0.
CTRIA3   20059   5       20057   20055   20056   0.      0.
CQUAD4   20060   5       20067   20068   20070   20069   0.      0.
CQUAD4   20061   5       20068   20000   20001   20070   0.      0.
CQUAD4   20062   5       20069   20070   20072   20071   0.      0.
CQUAD4   20063   5       20070   20001   20002   20072   0.      0.
CQUAD4   20064   5       20071   20072   20074   20073   0.      0.
CQUAD4   20065   5       20072   20002   20003   20074   0.      0.
CQUAD4   20066   5       20073   20074   20076   20075   0.      0.
CQUAD4   20067   5       20074   20003   20004   20076   0.      0.
CQUAD4   20068   5       20075   20076   20078   20077   0.      0.
CQUAD4   20069   5       20076   20004   20079   20078   0.      0.
CQUAD4   20070   5       20077   20078   20081   20080   0.      0.
CQUAD4   20071   5       20078   20079   20082   20081   0.      0.
CQUAD4   20072   5       20080   20081   20084   20083   0.      0.
CQUAD4   20073   5       20081   20082   20085   20084   0.      0.
CQUAD4   20074   5       20083   20084   20087   20086   0.      0.
CQUAD4   20075   5       20084   20085   20088   20087   0.      0.
CQUAD4   20076   5       20089   20090   20092   20091   0.      0.
CQUAD4   20077   5       20090   20005   20093   20092   0.      0.
CQUAD4   20078   5       20091   20092   20095   20094   0.      0.
CQUAD4   20079   5       20092   20093   20096   20095   0.      0.
$ ... 8 like lines cut
$ Elements and Element Properties for region : pshell.6
PSHELL   6       1      1.2      1               1
$ Pset: "pshell.6" will be imported as: "pshell.6"
CTRIA3   25000   6       25093   25016   25091   0.      0.
CQUAD4   25001   6       25016   25093   25095   25094   0.      0.
CQUAD4   25002   6       25094   25095   25097   25096   0.      0.
CQUAD4   25003   6       25096   25097   25099   25098   0.      0.
CQUAD4   25004   6       25098   25099   25101   25100   0.      0.
CQUAD4   25005   6       25100   25101   25103   25102   0.      0.
CQUAD4   25006   6       25102   25103   25105   25104   0.      0.
CQUAD4   25007   6       25104   25105   25107   25106   0.      0.
CQUAD4   25008   6       25106   25107   25109   25108   0.      0.
CQUAD4   25009   6       25108   25109   25111   25110   0.      0.
CQUAD4   25010   6       25110   25111   25113   25112   0.      0.
CQUAD4   25011   6       25112   25113   25115   25114   0.      0.
CQUAD4   25012   6       25114   25115   25116   25017   0.      0.
CQUAD4   25013   6       25017   25116   25118   25117   0.      0.
CQUAD4   25014   6       25117   25118   25120   25119   0.      0.
CQUAD4   25015   6       25119   25120   25122   25121   0.      0.
CQUAD4   25016   6       25121   25122   25124   25123   0.      0.
CQUAD4   25017   6       25123   25124   25126   25125   0.      0.
CQUAD4   25018   6       25125   25126   25128   25127   0.      0.
CQUAD4   25019   6       25127   25128   25130   25129   0.      0.
CQUAD4   25020   6       25129   25130   25132   25131   0.      0.
$ ... 570 like lines cut
CTRIA3   25592   6       25688   25006   25689   0.      0.
CQUAD4   25593   6       25006   25689   25691   25690   0.      0.
CQUAD4   25594   6       25690   25691   25693   25692   0.      0.
CQUAD4   25595   6       25692   25693   25695   25694   0.      0.
CQUAD4   25596   6       25694   25695   25697   25696   0.      0.
CQUAD4   25597   6       25696   25697   25699   25698   0.      0.
CQUAD4   25598   6       25698   25699   25701   25700   0.      0.
CQUAD4   25599   6       25700   25701   25703   25702   0.      0.
CQUAD4   25600   6       25702   25703   25705   25704   0.      0.
CQUAD4   25601   6       25704   25705   25707   25706   0.      0.
CQUAD4   25602   6       25706   25707   25709   25708   0.      0.
CQUAD4   25603   6       25708   25709   25711   25710   0.      0.
CQUAD4   25604   6       25710   25711   25712   25007   0.      0.
CQUAD4   25605   6       25007   25712   25714   25713   0.      0.
CQUAD4   25606   6       25713   25714   25716   25715   0.      0.
CQUAD4   25607   6       25715   25716   25718   25717   0.      0.
CQUAD4   25608   6       25717   25718   25720   25719   0.      0.
CQUAD4   25609   6       25719   25720   25722   25721   0.      0.
CQUAD4   25610   6       25721   25722   25724   25723   0.      0.
CQUAD4   25611   6       25723   25724   25726   25725   0.      0.
CQUAD4   25612   6       25725   25726   25728   25727   0.      0.
$ ... 309 like lines cut
CTRIA3   25922   6       26015   25023   26014   0.      0.
CQUAD4   25923   6       25023   25485   25486   26015   0.      0.
CQUAD4   26000   6       26084   26085   26086   28500   0.      0.
CQUAD4   26001   6       26017   26084   28500   26018   0.      0.
CQUAD4   26002   6       26598   26866   25003   26599   0.      0.
CQUAD4   26003   6       28500   26086   26088   26087   0.      0.
CQUAD4   26004   6       26268   26017   26018   26271   0.      0.
CQUAD4   26005   6       26018   28500   26087   26019   0.      0.
CQUAD4   26006   6       25003   26867   26869   26868   0.      0.
CQUAD4   26007   6       26087   26088   26090   26089   0.      0.
CQUAD4   26008   6       26267   26268   26271   26270   0.      0.
CQUAD4   26009   6       26271   26018   26019   26274   0.      0.
CQUAD4   26010   6       26600   26868   26870   26601   0.      0.
CQUAD4   26011   6       26665   26666   26669   26668   0.      0.
CQUAD4   26012   6       26089   26090   26092   26091   0.      0.
CQUAD4   26013   6       26020   26089   26091   26021   0.      0.
CQUAD4   26014   6       26600   26671   26674   26601   0.      0.
CQUAD4   26015   6       26091   26092   26094   26093   0.      0.
CQUAD4   26016   6       26021   26091   26093   26022   0.      0.
CQUAD4   26017   6       26273   26274   26277   26276   0.      0.
CQUAD4   26018   6       26277   26020   26021   26280   0.      0.
$ ... 905 like lines cut
CTRIA3   26924   6       25216   25021   25217   0.      0.
$ Elements and Element Properties for region : pshell.7
PSHELL   7       1      6.35     1               1
$ Pset: "pshell.7" will be imported as: "pshell.7"
CQUAD4   16276   7       16309   16352   16351   16228   0.      0.
CQUAD4   16277   7       16310   16353   16352   16309   0.      0.
CQUAD4   16278   7       16308   16354   16353   16310   0.      0.
CQUAD4   16279   7       16312   16355   16354   16308   0.      0.
CQUAD4   16280   7       16313   16356   16355   16312   0.      0.
CQUAD4   16281   7       16311   16408   16356   16313   0.      0.
CQUAD4   16282   7       16314   16357   16408   16311   0.      0.
CQUAD4   16283   7       16315   16358   16357   16314   0.      0.
CQUAD4   16284   7       16316   16359   16358   16315   0.      0.
CQUAD4   16285   7       16317   16360   16359   16316   0.      0.
CQUAD4   16332   7       16352   16404   16403   16351   0.      0.
CQUAD4   16333   7       16353   16405   16404   16352   0.      0.
CQUAD4   16334   7       16354   16406   16405   16353   0.      0.
CQUAD4   16335   7       16355   16407   16406   16354   0.      0.
CQUAD4   16336   7       16356   16546   16407   16355   0.      0.
CQUAD4   16337   7       16359   16410   16409   16358   0.      0.
CQUAD4   16338   7       16360   16411   16410   16359   0.      0.
CQUAD4   16342   7       16409   16414   16357   16358   0.      0.
CQUAD4   16343   7       16409   16416   16415   16414   0.      0.
CQUAD4   16344   7       16410   16417   16416   16409   0.      0.
$ ... 18 like lines cut
CTRIA3   16496   7       16495   16505   16496   0.      0.
CTRIA3   16498   7       16477   16495   16478   0.      0.
CTRIA3   16500   7       16506   16482   16481   0.      0.
CTRIA3   16509   7       16482   16417   16418   0.      0.
$ Elements and Element Properties for region : pshell.8
PSHELL   8       1      2.       1               1
$ Pset: "pshell.8" will be imported as: "pshell.8"
CQUAD4   16320   8       16339   16391   16390   16338   0.      0.
CQUAD4   16321   8       16340   16392   16391   16339   0.      0.
CQUAD4   16322   8       16341   16393   16392   16340   0.      0.
CQUAD4   16323   8       16342   16394   16393   16341   0.      0.
CQUAD4   16324   8       16343   16395   16394   16342   0.      0.
CQUAD4   16325   8       16344   16396   16395   16343   0.      0.
CQUAD4   16326   8       16345   16397   16396   16344   0.      0.
CQUAD4   16351   8       16380   16423   16422   16379   0.      0.
CQUAD4   16352   8       16381   16424   16423   16380   0.      0.
CQUAD4   16353   8       16382   16425   16424   16381   0.      0.
CQUAD4   16354   8       16383   16426   16425   16382   0.      0.
CQUAD4   16355   8       16384   16427   16426   16383   0.      0.
CQUAD4   16356   8       16385   16428   16427   16384   0.      0.
CQUAD4   16357   8       16386   16429   16428   16385   0.      0.
CQUAD4   16358   8       16387   16430   16429   16386   0.      0.
CQUAD4   16359   8       16388   16431   16430   16387   0.      0.
CQUAD4   16360   8       16389   16432   16431   16388   0.      0.
CQUAD4   16361   8       16390   16391   16432   16389   0.      0.
CQUAD4   16364   8       16423   16435   16434   16422   0.      0.
CQUAD4   16365   8       16424   16436   16435   16423   0.      0.
$ ... 51 like lines cut
CTRIA3   16493   8       16532   16526   16525   0.      0.
CTRIA3   16501   8       16524   16527   16500   0.      0.
CTRIA3   16503   8       16490   16499   16500   0.      0.
CTRIA3   16505   8       16458   16472   16473   0.      0.
CTRIA3   16507   8       16345   16397   16398   0.      0.
$ Elements and Element Properties for region : pshell.9
PSHELL   9       1      3.5      1               1
$ Pset: "pshell.9" will be imported as: "pshell.9"
CQUAD4   16130   9       16177   16013   16179   16178   0.      0.
CQUAD4   16132   9       16178   16179   16181   16180   0.      0.
CQUAD4   16134   9       16180   16181   16183   16182   0.      0.
CQUAD4   16136   9       16182   16183   16185   16184   0.      0.
CQUAD4   16138   9       16184   16185   16187   16186   0.      0.
CQUAD4   16140   9       16186   16187   16189   16188   0.      0.
CQUAD4   16142   9       16188   16189   16191   16190   0.      0.
CQUAD4   16144   9       16190   16191   16193   16192   0.      0.
CQUAD4   16146   9       16192   16193   16195   16194   0.      0.
CQUAD4   16148   9       16194   16195   16197   16196   0.      0.
CQUAD4   16150   9       16196   16197   16199   16198   0.      0.
CQUAD4   16152   9       16198   16199   16201   16200   0.      0.
CQUAD4   16154   9       16200   16201   16203   16202   0.      0.
CQUAD4   16156   9       16202   16203   16205   16204   0.      0.
CQUAD4   16158   9       16204   16205   16207   16206   0.      0.
CQUAD4   16160   9       16206   16207   16209   16208   0.      0.
CQUAD4   16244   9       16013   16321   16008   16009   0.      0.
CQUAD4   16245   9       16179   16322   16321   16013   0.      0.
CQUAD4   16246   9       16181   16323   16322   16179   0.      0.
CQUAD4   16247   9       16183   16324   16323   16181   0.      0.
$ ... 135 like lines cut
CTRIA3   16492   9       16525   16517   16532   0.      0.
CTRIA3   16494   9       16506   16507   16482   0.      0.
CTRIA3   16495   9       16495   16504   16505   0.      0.
CTRIA3   16497   9       16495   16494   16477   0.      0.
CTRIA3   16499   9       16482   16483   16418   0.      0.
CTRIA3   16502   9       16500   16527   16501   0.      0.
CTRIA3   16504   9       16491   16490   16500   0.      0.
CTRIA3   16506   9       16459   16458   16473   0.      0.
CTRIA3   16508   9       16345   16346   16398   0.      0.
CTRIA3   16510   9       16013   16177   16009   0.      0.
$ Elements and Element Properties for region : pshell.10
PSHELL   10      1      3.       1               1
$ Pset: "pshell.10" will be imported as: "pshell.10"
CQUAD4   16000   10      16006   16004   16008   16009   0.      0.
CQUAD4   16001   10      16014   16015   16020   16019   0.      0.
CQUAD4   16002   10      16015   16016   16021   16020   0.      0.
CQUAD4   16003   10      16016   16017   16022   16021   0.      0.
CQUAD4   16004   10      16017   16018   16023   16022   0.      0.
CQUAD4   16005   10      16019   16020   16025   16024   0.      0.
CQUAD4   16006   10      16020   16021   16551   16025   0.      0.
CQUAD4   16007   10      16021   16022   16026   16551   0.      0.
CQUAD4   16008   10      16022   16023   16027   16026   0.      0.
CQUAD4   16009   10      16024   16025   16029   16028   0.      0.
CQUAD4   16010   10      16025   16551   16030   16029   0.      0.
CQUAD4   16011   10      16551   16026   16031   16030   0.      0.
CQUAD4   16012   10      16026   16027   16032   16031   0.      0.
CQUAD4   16013   10      16028   16029   16034   16033   0.      0.
CQUAD4   16014   10      16029   16030   16035   16034   0.      0.
CQUAD4   16015   10      16030   16031   16036   16035   0.      0.
CQUAD4   16016   10      16031   16032   16037   16036   0.      0.
CQUAD4   16017   10      16033   16034   16039   16038   0.      0.
CQUAD4   16018   10      16034   16035   16040   16039   0.      0.
CQUAD4   16019   10      16035   16036   16041   16040   0.      0.
$ ... 141 like lines cut
CTRIA3   16511   10      16177   16010   16006   0.      0.
CTRIA3   16512   10      16009   16177   16006   0.      0.
CQUAD4   16513   10      16091   16011   16012   16547   0.      0.
CQUAD4   16514   10      16091   16547   16006   16010   0.      0.
CQUAD4   16515   10      16006   16548   16094   16004   0.      0.
CQUAD4   16516   10      16094   16005   16007   16548   0.      0.
$ Elements and Element Properties for region : pshell.11
PSHELL   11      1      2.5      1               1
$ Pset: "pshell.11" will be imported as: "pshell.11"
CQUAD4   16177   11      16229   16252   16226   16228   0.      0.
CQUAD4   16178   11      16230   16263   16252   16229   0.      0.
CQUAD4   16179   11      16232   16264   16275   16231   0.      0.
CQUAD4   16180   11      16233   16265   16264   16232   0.      0.
CQUAD4   16181   11      16234   16266   16265   16233   0.      0.
CQUAD4   16182   11      16235   16267   16266   16234   0.      0.
CQUAD4   16183   11      16236   16268   16267   16235   0.      0.
CQUAD4   16184   11      16237   16269   16268   16236   0.      0.
CQUAD4   16185   11      16238   16270   16269   16237   0.      0.
CQUAD4   16186   11      16239   16271   16270   16238   0.      0.
CQUAD4   16187   11      16240   16272   16271   16239   0.      0.
CQUAD4   16188   11      16241   16273   16272   16240   0.      0.
CQUAD4   16189   11      16242   16274   16273   16241   0.      0.
CQUAD4   16190   11      16244   16274   16242   16227   0.      0.
CQUAD4   16191   11      16264   16277   16276   16275   0.      0.
CQUAD4   16192   11      16264   16279   16278   16277   0.      0.
CQUAD4   16193   11      16265   16280   16279   16264   0.      0.
CQUAD4   16194   11      16266   16281   16280   16265   0.      0.
CQUAD4   16195   11      16267   16295   16281   16266   0.      0.
CQUAD4   16196   11      16268   16294   16295   16267   0.      0.
$ ... 47 like lines cut
$ Elements and Element Properties for region : pshell.12
PSHELL   12      1      2.4      1               1
$ Pset: "pshell.12" will be imported as: "pshell.12"
CQUAD4   606     12      8009    8005    8013    8020    0.      0.
CTRIA3   4000    12      4542    4543    4544    0.      0.
CQUAD4   4001    12      4590    8001    4517    4516    0.      0.
CQUAD4   4002    12      8001    8000    4501    4517    0.      0.
CQUAD4   4003    12      4516    4517    4519    4518    0.      0.
CQUAD4   4004    12      4517    4501    4500    4519    0.      0.
CQUAD4   4005    12      4518    4519    4521    4520    0.      0.
CQUAD4   4006    12      4519    4500    4503    4521    0.      0.
CQUAD4   4007    12      4520    4521    4523    4522    0.      0.
CQUAD4   4008    12      4521    4503    4502    4523    0.      0.
CQUAD4   4009    12      4522    4523    4525    4524    0.      0.
CQUAD4   4010    12      4523    4502    4509    4525    0.      0.
CQUAD4   4011    12      4524    4525    4527    4526    0.      0.
CQUAD4   4012    12      4525    4509    4510    4527    0.      0.
CQUAD4   4013    12      4526    4527    4529    4528    0.      0.
CQUAD4   4014    12      4527    4510    4511    4529    0.      0.
CQUAD4   4015    12      4528    4529    4531    4530    0.      0.
CQUAD4   4016    12      4529    4511    4512    4531    0.      0.
CQUAD4   4017    12      4530    4531    4533    4532    0.      0.
CQUAD4   4018    12      4531    4512    4513    4533    0.      0.
CQUAD4   4019    12      4532    4533    4535    4534    0.      0.
CQUAD4   4020    12      4533    4513    4507    4535    0.      0.
$ ... 263 like lines cut
$ Elements and Element Properties for region : pshell.13
PSHELL   13      1      1.2      1               1
$ Pset: "pshell.13" will be imported as: "pshell.13"
CQUAD4   4030    13      4546    4514    4515    4547    0.      0.
CQUAD4   4031    13      4547    4515    4505    4548    0.      0.
CQUAD4   4032    13      4548    4505    4506    4549    0.      0.
CQUAD4   4033    13      4549    4506    4504    4550    0.      0.
CQUAD4   4034    13      4550    4504    4508    4551    0.      0.
CQUAD4   4035    13      4551    4508    4507    4552    0.      0.
CQUAD4   4036    13      4552    4507    4513    4553    0.      0.
CQUAD4   4037    13      4553    4513    4512    4554    0.      0.
CQUAD4   4038    13      4554    4512    4511    4555    0.      0.
CQUAD4   4039    13      4555    4511    4510    4556    0.      0.
CQUAD4   4040    13      4556    4510    4509    4557    0.      0.
CQUAD4   4041    13      4557    4509    4502    4558    0.      0.
CQUAD4   4042    13      4558    4561    4503    4502    0.      0.
CQUAD4   4043    13      4561    4559    4500    4503    0.      0.
CQUAD4   4044    13      4559    4560    4501    4500    0.      0.
CQUAD4   4045    13      4560    4501    8000    4574    0.      0.
CQUAD4   4046    13      4562    4542    4592    4591    0.      0.
CQUAD4   4047    13      4542    4540    4593    4592    0.      0.
CQUAD4   4048    13      4540    4538    4594    4593    0.      0.
CQUAD4   4051    13      4538    4536    4595    4594    0.      0.
$ ... 87 like lines cut
CTRIA3   4139    13      4720    4684    4721    0.      0.
CQUAD4   4140    13      4684    4683    4722    4721    0.      0.
CQUAD4   4141    13      4683    4682    4723    4722    0.      0.
CQUAD4   4142    13      4682    4681    4724    4723    0.      0.
CQUAD4   4143    13      4681    4680    4725    4724    0.      0.
CQUAD4   4144    13      4680    4679    4726    4725    0.      0.
CQUAD4   4145    13      4679    4678    4727    4726    0.      0.
CQUAD4   4146    13      4678    4677    4728    4727    0.      0.
CQUAD4   4147    13      4677    4676    4729    4728    0.      0.
CQUAD4   4148    13      4676    4675    4730    4729    0.      0.
CQUAD4   4149    13      4675    4674    4731    4730    0.      0.
CQUAD4   4150    13      4674    4672    4732    4731    0.      0.
CQUAD4   4151    13      4719    4720    4734    4733    0.      0.
CQUAD4   4152    13      4720    4721    4735    4734    0.      0.
CQUAD4   4153    13      4721    4722    4736    4735    0.      0.
CQUAD4   4154    13      4722    4723    4737    4736    0.      0.
CQUAD4   4155    13      4723    4724    4738    4737    0.      0.
CQUAD4   4156    13      4724    4725    4739    4738    0.      0.
CQUAD4   4157    13      4725    4726    4740    4739    0.      0.
CQUAD4   4158    13      4726    4727    4741    4740    0.      0.
CQUAD4   4159    13      4727    4728    4742    4741    0.      0.
$ ... 17 like lines cut
CTRIA3   6000    13      6089    6087    6063    0.      0.
CQUAD4   6001    13      6025    6069    6070    6026    0.      0.
CQUAD4   6002    13      6069    6065    6064    6070    0.      0.
CQUAD4   6003    13      6026    6070    6071    6027    0.      0.
CQUAD4   6004    13      6070    6064    6067    6071    0.      0.
CQUAD4   6005    13      6027    6071    6072    6028    0.      0.
CQUAD4   6006    13      6071    6067    6066    6072    0.      0.
CQUAD4   6007    13      6028    6072    6073    6029    0.      0.
CQUAD4   6008    13      6072    6066    6068    6073    0.      0.
CQUAD4   6009    13      6029    6073    6074    6030    0.      0.
CQUAD4   6010    13      6073    6068    6057    6074    0.      0.
CQUAD4   6011    13      6030    6074    6075    6031    0.      0.
CQUAD4   6012    13      6074    6057    6058    6075    0.      0.
CQUAD4   6013    13      6031    6075    6076    6032    0.      0.
CQUAD4   6014    13      6075    6058    6059    6076    0.      0.
CQUAD4   6015    13      6032    6076    6077    6033    0.      0.
CQUAD4   6016    13      6076    6059    6060    6077    0.      0.
CQUAD4   6017    13      6033    6077    6078    6034    0.      0.
CQUAD4   6018    13      6077    6060    6061    6078    0.      0.
CQUAD4   6019    13      6034    6078    6079    6035    0.      0.
CQUAD4   6020    13      6078    6061    6055    6079    0.      0.
$ ... 80 like lines cut
CTRIA3   6101    13      6045    6150    6263    0.      0.
CQUAD4   6102    13      6018    6153    6155    6017    0.      0.
CQUAD4   6103    13      6153    6154    6157    6155    0.      0.
CQUAD4   6104    13      6154    6263    6156    6157    0.      0.
CQUAD4   6105    13      6263    6044    6043    6156    0.      0.
CQUAD4   6106    13      6017    6155    6159    6016    0.      0.
CQUAD4   6107    13      6155    6157    6160    6159    0.      0.
CQUAD4   6108    13      6157    6156    6271    6160    0.      0.
CQUAD4   6109    13      6156    6043    6042    6271    0.      0.
CQUAD4   6110    13      6016    6159    6162    6024    0.      0.
CQUAD4   6111    13      6159    6160    6163    6162    0.      0.
CQUAD4   6112    13      6160    6271    6272    6163    0.      0.
CQUAD4   6113    13      6271    6042    6046    6272    0.      0.
CQUAD4   6114    13      6229    6165    6167    6252    0.      0.
CQUAD4   6115    13      6165    6164    6169    6167    0.      0.
CQUAD4   6116    13      6164    6166    6168    6169    0.      0.
CQUAD4   6117    13      6166    6040    6039    6168    0.      0.
CQUAD4   6118    13      6252    6167    6170    6013    0.      0.
CQUAD4   6119    13      6167    6169    6172    6170    0.      0.
CQUAD4   6120    13      6169    6168    6171    6172    0.      0.
CQUAD4   6121    13      6168    6039    6038    6171    0.      0.
$ ... 62 like lines cut
CTRIA3   6236    13      6133    6135    6270    0.      0.
CTRIA3   6600    13      6045    6263    6044    0.      0.
CTRIA3   8003    13      8473    8469    8474    0.      0.
CTRIA3   8004    13      8474    8472    8353    0.      0.
CTRIA3   8005    13      8010    8014    8316    0.      0.
CTRIA3   8006    13      8063    8316    8279    0.      0.
CQUAD4   8186    13      8280    8353    8471    8281    0.      0.
CQUAD4   8187    13      8281    8471    8246    8282    0.      0.
CQUAD4   8188    13      8282    8246    8247    8283    0.      0.
CQUAD4   8189    13      8283    8247    8248    8284    0.      0.
CQUAD4   8190    13      8284    8248    8249    8285    0.      0.
CQUAD4   8191    13      8285    8249    8250    8286    0.      0.
CQUAD4   8192    13      8286    8250    8251    8287    0.      0.
CQUAD4   8193    13      8287    8251    8252    8288    0.      0.
CQUAD4   8194    13      8288    8252    8253    8289    0.      0.
CQUAD4   8195    13      8289    8253    8254    8290    0.      0.
CQUAD4   8196    13      8290    8254    8255    8291    0.      0.
CQUAD4   8197    13      8291    8255    8256    8292    0.      0.
CQUAD4   8198    13      8292    8256    8257    8293    0.      0.
CQUAD4   8199    13      8293    8257    8258    8294    0.      0.
CQUAD4   8200    13      8294    8258    8259    8295    0.      0.
CQUAD4   8201    13      8295    8259    8260    8296    0.      0.
CQUAD4   8202    13      8296    8260    8261    8297    0.      0.
CQUAD4   8203    13      8297    8261    8262    8298    0.      0.
CQUAD4   8204    13      8298    8262    8263    8299    0.      0.
CQUAD4   8205    13      8299    8263    8264    8300    0.      0.
$ ... 88 like lines cut
CTRIA3   8305    13      4590    8464    8001    0.      0.
CTRIA3   8306    13      8464    8463    8462    0.      0.
CTRIA3   8307    13      8003    8429    8012    0.      0.
CTRIA3   8308    13      8466    8392    8429    0.      0.
CQUAD4   8314    13      8398    8399    8363    8362    0.      0.
CQUAD4   8315    13      8399    8400    8364    8363    0.      0.
CQUAD4   8316    13      8400    8401    8365    8364    0.      0.
CQUAD4   8317    13      8401    8402    8366    8365    0.      0.
CQUAD4   8318    13      8402    8403    8367    8366    0.      0.
CQUAD4   8319    13      8403    8404    8368    8367    0.      0.
CQUAD4   8320    13      8404    8405    8369    8368    0.      0.
CQUAD4   8321    13      8405    8406    8370    8369    0.      0.
CQUAD4   8322    13      8406    8407    8371    8370    0.      0.
CQUAD4   8323    13      8407    8408    8372    8371    0.      0.
CQUAD4   8324    13      8408    8409    8373    8372    0.      0.
CQUAD4   8325    13      8409    8410    8374    8373    0.      0.
CQUAD4   8326    13      8410    8411    8375    8374    0.      0.
CQUAD4   8327    13      8411    8412    8376    8375    0.      0.
CQUAD4   8328    13      8412    8413    8377    8376    0.      0.
CQUAD4   8329    13      8413    8414    8378    8377    0.      0.
CQUAD4   8330    13      8414    8415    8379    8378    0.      0.
CQUAD4   8331    13      8415    8416    8380    8379    0.      0.
CQUAD4   8332    13      8416    8417    8381    8380    0.      0.
CQUAD4   8333    13      8417    8418    8382    8381    0.      0.
$ ... 83 like lines cut
CTRIA3   8417    13      8465    8466    8392    0.      0.
CTRIA3   8418    13      8062    8279    8063    0.      0.
$ Elements and Element Properties for region : pshell.14
PSHELL   15      1      1.2      1               1
$ Pset: "pshell.14" will be imported as: "pshell.15"
CQUAD4   10000   15      10005   10006   10014   10013   0.      0.
CQUAD4   10001   15      10006   10007   10015   10014   0.      0.
CQUAD4   10002   15      10007   10008   10016   10015   0.      0.
CQUAD4   10003   15      10008   10009   10017   10016   0.      0.
CQUAD4   10004   15      10009   10010   10018   10017   0.      0.
CQUAD4   10005   15      10010   10011   10019   10018   0.      0.
CQUAD4   10006   15      10011   10012   10020   10019   0.      0.
CQUAD4   10007   15      10013   10014   10022   10021   0.      0.
CQUAD4   10008   15      10014   10015   10023   10022   0.      0.
CQUAD4   10009   15      10015   10016   10024   10023   0.      0.
CQUAD4   10010   15      10016   10017   10025   10024   0.      0.
CQUAD4   10011   15      10017   10018   10026   10025   0.      0.
CQUAD4   10012   15      10018   10019   10027   10026   0.      0.
CQUAD4   10013   15      10019   10020   10028   10027   0.      0.
CQUAD4   10014   15      10021   10022   10030   10029   0.      0.
CQUAD4   10015   15      10022   10023   10031   10030   0.      0.
CQUAD4   10016   15      10023   10024   10032   10031   0.      0.
CQUAD4   10017   15      10024   10025   10033   10032   0.      0.
CQUAD4   10018   15      10025   10026   10034   10033   0.      0.
CQUAD4   10019   15      10026   10027   10035   10034   0.      0.
$ ... 442 like lines cut
CTRIA3   10462   15      10540   10542   10499   0.      0.
CTRIA3   10463   15      10532   10534   10496   0.      0.
CTRIA3   10464   15      10518   10486   10492   0.      0.
CTRIA3   10465   15      10521   10485   10493   0.      0.
CQUAD4   10466   15      10521   10485   10486   10518   0.      0.
CQUAD4   22000   15      22013   22014   22006   22021   0.      0.
CQUAD4   22001   15      22014   22015   22023   22006   0.      0.
CQUAD4   22002   15      22015   22016   22024   22023   0.      0.
CQUAD4   22003   15      22016   22017   22025   22024   0.      0.
CQUAD4   22004   15      22017   22018   22026   22025   0.      0.
CQUAD4   22005   15      22018   22019   22007   22026   0.      0.
CQUAD4   22006   15      22019   22020   22028   22007   0.      0.
CQUAD4   22007   15      22021   22006   22030   22029   0.      0.
CQUAD4   22008   15      22006   22023   22031   22030   0.      0.
CQUAD4   22009   15      22023   22024   22032   22031   0.      0.
CQUAD4   22010   15      22024   22025   22033   22032   0.      0.
CQUAD4   22011   15      22025   22026   22034   22033   0.      0.
CQUAD4   22012   15      22026   22007   22035   22034   0.      0.
CQUAD4   22013   15      22007   22028   22036   22035   0.      0.
CQUAD4   22014   15      22029   22030   22038   22037   0.      0.
CQUAD4   22015   15      22030   22031   22039   22038   0.      0.
CQUAD4   22016   15      22031   22032   22040   22039   0.      0.
CQUAD4   22017   15      22032   22033   22041   22040   0.      0.
CQUAD4   22018   15      22033   22034   22042   22041   0.      0.
$ ... 190 like lines cut
$ Elements and Element Properties for region : conm2
CONM2    4       594     0      3.5-4    0.      0.      0.
         0.      0.      0.      0.      0.      0.
CONM2    5       116     0      8.5-4    0.      0.      0.
         0.      0.      0.      0.      0.      0.
CONM2    24408   1597    0      8.-5     0.      0.      0.
         0.      0.      0.      0.      0.      0.
CONM2    24409   1598    0      1.1-4    0.      0.      0.
         0.      0.      0.      0.      0.      0.
CONM2    24410   1599    0      7.-5     0.      0.      0.
         0.      0.      0.      0.      0.      0.
$ Elements and Element Properties for region : celas2.ca6.cb6
CELAS2   60006  1.+8     27046   6       70000   6       0.      0.
CELAS2   60016  1.+8     26291   6       70001   6       0.      0.
CELAS2   60026  1.+8     25988   6       70002   6       0.      0.
CELAS2   60036  1.+8     27037   6       70003   6       0.      0.
CELAS2   60046  1.+8     26477   6       70004   6       0.      0.
CELAS2   60056  1.+8     26306   6       70005   6       0.      0.
CELAS2   60066  1.+8     25339   6       70006   6       0.      0.
CELAS2   60076  1.+8     25973   6       70007   6       0.      0.
CELAS2   60086  1.+8     25293   6       70008   6       0.      0.
CELAS2   60096  1.+8     26524   6       70009   6       0.      0.
CELAS2   60106  1.+8     25835   6       70010   6       0.      0.
CELAS2   60116  1.+8     26444   6       70011   6       0.      0.
CELAS2   60126  1.+8     25303   6       70012   6       0.      0.
CELAS2   60136  1.+8     26513   6       70013   6       0.      0.
CELAS2   60146  1.+8     25865   6       70014   6       0.      0.
CELAS2   60156  1.+8     26411   6       70015   6       0.      0.
CELAS2   270076 1.+8     290020  6       29002   6       0.      0.
CELAS2   270236 1.+8     200680  6       20068   6       0.      0.
CELAS2   270246 1.+8     200760  6       20076   6       0.      0.
CELAS2   270256 1.+8     200840  6       20084   6       0.      0.
$ ... 6 like lines cut
$ Elements and Element Properties for region : celas2.ca5.cb5
CELAS2   60005  1.+8     27046   5       70000   5       0.      0.
CELAS2   60015  1.+8     26291   5       70001   5       0.      0.
CELAS2   60025  1.+8     25988   5       70002   5       0.      0.
CELAS2   60035  1.+8     27037   5       70003   5       0.      0.
CELAS2   60045  1.+8     26477   5       70004   5       0.      0.
CELAS2   60055  1.+8     26306   5       70005   5       0.      0.
CELAS2   60065  1.+8     25339   5       70006   5       0.      0.
CELAS2   60075  1.+8     25973   5       70007   5       0.      0.
CELAS2   60085  1.+8     25293   5       70008   5       0.      0.
CELAS2   60095  1.+8     26524   5       70009   5       0.      0.
CELAS2   60105  1.+8     25835   5       70010   5       0.      0.
CELAS2   60115  1.+8     26444   5       70011   5       0.      0.
CELAS2   60125  1.+8     25303   5       70012   5       0.      0.
CELAS2   60135  1.+8     26513   5       70013   5       0.      0.
CELAS2   60145  1.+8     25865   5       70014   5       0.      0.
CELAS2   60155  1.+8     26411   5       70015   5       0.      0.
CELAS2   270075 1.+8     290020  5       29002   5       0.      0.
CELAS2   270235 1.+8     200680  5       20068   5       0.      0.
CELAS2   270245 1.+8     200760  5       20076   5       0.      0.
CELAS2   270255 1.+8     200840  5       20084   5       0.      0.
$ ... 8 like lines cut
$ Elements and Element Properties for region : celas2.ca4.cb4
CELAS2   60004  1.+8     27046   4       70000   4       0.      0.
CELAS2   60014  500000.  26291   4       70001   4       0.      0.
CELAS2   60024  1.+8     25988   4       70002   4       0.      0.
CELAS2   60034  1.+8     27037   4       70003   4       0.      0.
CELAS2   60044  1.+8     26477   4       70004   4       0.      0.
CELAS2   60054  1.+8     26306   4       70005   4       0.      0.
CELAS2   60064  1.+8     25339   4       70006   4       0.      0.
CELAS2   60074  1.+8     25973   4       70007   4       0.      0.
CELAS2   60084  1.+8     25293   4       70008   4       0.      0.
CELAS2   60094  1.+8     26524   4       70009   4       0.      0.
CELAS2   60104  1.+8     25835   4       70010   4       0.      0.
CELAS2   60114  1.+8     26444   4       70011   4       0.      0.
CELAS2   60124  1.+8     25303   4       70012   4       0.      0.
CELAS2   60134  1.+8     26513   4       70013   4       0.      0.
CELAS2   60144  1.+8     25865   4       70014   4       0.      0.
CELAS2   60154  1.+8     26411   4       70015   4       0.      0.
CELAS2   269724 1.+8     25007   4       519     4       0.      0.
CELAS2   269734 1.+8     25006   4       4525    4       0.      0.
CELAS2   269744 1.+8     25022   4       483     4       0.      0.
CELAS2   269754 1.+8     25008   4       126     4       0.      0.
$ ... 32 like lines cut
$ Elements and Element Properties for region : celas2.ca3.cb3
CELAS2   60003  1.+7     27046   3       70000   3       0.      0.
CELAS2   60013  1.+7     26291   3       70001   3       0.      0.
CELAS2   60023  1.+7     25988   3       70002   3       0.      0.
CELAS2   60033  1.+7     27037   3       70003   3       0.      0.
CELAS2   60043  1.+7     26477   3       70004   3       0.      0.
CELAS2   60053  1.+7     26306   3       70005   3       0.      0.
CELAS2   60063  1.+7     25339   3       70006   3       0.      0.
CELAS2   60073  1.+7     25973   3       70007   3       0.      0.
CELAS2   60083  1.+7     25293   3       70008   3       0.      0.
CELAS2   60093  1.+7     26524   3       70009   3       0.      0.
CELAS2   60103  1.+7     25835   3       70010   3       0.      0.
CELAS2   60113  1.+7     26444   3       70011   3       0.      0.
CELAS2   60123  1.+7     25303   3       70012   3       0.      0.
CELAS2   60133  1.+7     26513   3       70013   3       0.      0.
CELAS2   60143  1.+7     25865   3       70014   3       0.      0.
CELAS2   60153  1.+7     26411   3       70015   3       0.      0.
CELAS2   269253 1.+7     22158   3       10189   3       0.      0.
CELAS2   269263 1.+7     22134   3       10205   3       0.      0.
CELAS2   269273 1.+7     22118   3       10221   3       0.      0.
CELAS2   269283 1.+7     22115   3       10226   3       0.      0.
$ ... 114 like lines cut
$ Elements and Element Properties for region : celas2.ca2.cb2
CELAS2   60002  1.+7     27046   2       70000   2       0.      0.
CELAS2   60012  1.+7     26291   2       70001   2       0.      0.
CELAS2   60022  1.+7     25988   2       70002   2       0.      0.
CELAS2   60032  1.+7     27037   2       70003   2       0.      0.
CELAS2   60042  1.+7     26477   2       70004   2       0.      0.
CELAS2   60052  1.+7     26306   2       70005   2       0.      0.
CELAS2   60062  1.+7     25339   2       70006   2       0.      0.
CELAS2   60072  1.+7     25973   2       70007   2       0.      0.
CELAS2   60082  1.+7     25293   2       70008   2       0.      0.
CELAS2   60092  1.+7     26524   2       70009   2       0.      0.
CELAS2   60102  1.+7     25835   2       70010   2       0.      0.
CELAS2   60112  1.+7     26444   2       70011   2       0.      0.
CELAS2   60122  1.+7     25303   2       70012   2       0.      0.
CELAS2   60132  1.+7     26513   2       70013   2       0.      0.
CELAS2   60142  1.+7     25865   2       70014   2       0.      0.
CELAS2   60152  1.+7     26411   2       70015   2       0.      0.
CELAS2   269252 1.+7     22158   2       10189   2       0.      0.
CELAS2   269262 1.+7     22134   2       10205   2       0.      0.
CELAS2   269272 1.+7     22118   2       10221   2       0.      0.
CELAS2   269282 1.+7     22115   2       10226   2       0.      0.
$ ... 114 like lines cut
$ Elements and Element Properties for region : celas2.ca1.cb1
CELAS2   60001  1.+7     27046   1       70000   1       0.      0.
CELAS2   60011  1.+7     26291   1       70001   1       0.      0.
CELAS2   60021  1.+7     25988   1       70002   1       0.      0.
CELAS2   60031  1.+7     27037   1       70003   1       0.      0.
CELAS2   60041  1.+7     26477   1       70004   1       0.      0.
CELAS2   60051  1.+7     26306   1       70005   1       0.      0.
CELAS2   60061  1.+7     25339   1       70006   1       0.      0.
CELAS2   60071  1.+7     25973   1       70007   1       0.      0.
CELAS2   60081  1.+7     25293   1       70008   1       0.      0.
CELAS2   60091  1.+7     26524   1       70009   1       0.      0.
CELAS2   60101  1.+7     25835   1       70010   1       0.      0.
CELAS2   60111  1.+7     26444   1       70011   1       0.      0.
CELAS2   60121  1.+7     25303   1       70012   1       0.      0.
CELAS2   60131  1.+7     26513   1       70013   1       0.      0.
CELAS2   60141  1.+7     25865   1       70014   1       0.      0.
CELAS2   60151  1.+7     26411   1       70015   1       0.      0.
CELAS2   269251 1.+7     22158   1       10189   1       0.      0.
CELAS2   269261 1.+7     22134   1       10205   1       0.      0.
CELAS2   269271 1.+7     22118   1       10221   1       0.      0.
CELAS2   269281 1.+7     22115   1       10226   1       0.      0.
$ ... 114 like lines cut
$ Referenced Material Records
$ Material Record : mat1.1
$ Description of Material :
MAT1     1      65000.  25000.  .3      2.78-9
$ Material Record : mat1.2
$ Description of Material :
MAT1     2      200000. 76923.1 .3      2.6-8
$ Material Record : mat1.3
$ Description of Material :
MAT1     3      72400.  27846.2 .3      2.78-9
$ Multipoint Constraints of the Entire Model
RBE2     26994   116     123     1090    3970    94000
RBE2     26995   594     12345   2330    5840
RBE2     26996   1597    123456  240260  240310  240670
RBE2     26997   1598    123456  240340  241170
RBE2     26998   1599    123456  241390  242030  242140
RBE2     26999   30001   123     61340   61360   61440
RBE3     27000           3009    123456 1.       123     70000   70001
         70002   70003
RBE3     27001           3008    123456 1.       123     70004   70005
         70006   70007
RBE3     27002           3001    123456 1.       123     70008   70009
         70010   70011
RBE3     27003           3002    123456 1.       123     70012   70013
         70014   70015
RBE2     27500   30002   123     120560  120620  121280
RBE2     27501   30003   123456  200680  200760  200840  200950
RBE2     27502   30004   123     220030  220040  220050  220060  220070
         220080  220090
RBE2     27503   30005   123     244270  244290
RBE2     27504   30000   123456  290020  300010  300020  300030  300040
         300050
$ Nodes of the Entire Model
GRID     1              2964.19 -1072.75-1226.6
GRID     2              3075.11 -1072.75-1226.6
GRID     3              2944.55 -1088.55-1226.6
GRID     4              2964.19 -1105.14-1226.6
GRID     5              2925.77 -1105.92-1226.6
GRID     6              2889.09 -1105.14-1226.6
GRID     7              3000.01 -1105.14-1226.6
GRID     8              3019.65 -1088.55-1226.6
GRID     9              3039.29 -1105.14-1226.6
GRID     10             3075.11 -1105.14-1226.6
GRID     11             3150.21 -1105.14-1226.6
GRID     12             3114.39 -1105.14-1226.6
GRID     13             3189.49 -1105.14-1226.6
GRID     14             3169.85 -1088.55-1226.6
GRID     15             3225.31 -1105.14-1226.6
GRID     16             3207.4  -1113.09-1226.6
GRID     17             3426.73 -1105.92-1226.6
GRID     18             3464.27 -1105.92-1226.6
GRID     19             3445.5  -1113.09-1226.6
GRID     20             3132.3  -1113.09-1226.6
$ ... 6355 like lines cut
$ Loads for Load Case : ANALYSE_STATIQUE.SC1
SPCADD   2       8       1
LOAD     5      1.      1.       1
$ Displacement Constraints of Load Set : grid.ps
SPC1     8       5       25835   25865   25973   25988   26291   26306
         26411   26444
$ Displacement Constraints of Load Set : spc1.1
SPC1     1       123456  30000
$ Loads for Load Case : ANALYSE_STATIQUE.SC2
LOAD     7      1.      1.       2
$ Loads for Load Case : ANALYSE_STATIQUE.SC3
LOAD     9      1.      1.       3
$ Gravity Loading of Load Set : grav.1
GRAV     1       0      9810.   1.       0.      0.
$ Gravity Loading of Load Set : grav.2
GRAV     2       0      9810.    0.     1.       0.
$ Gravity Loading of Load Set : grav.3
GRAV     3       0      9810.    0.      0.     1.
$ Referenced Coordinate Frames
CORD2R   33             2866.72 -1245.14-1266.922866.76 1483.25 715.357
        2866.72 -3227.421461.47
CORD2R   34             2894.08 -1052.25-1301.441283.26 -1052.2 1628.05
        1073.71 1567.08 -2302.44
CORD2R   35             2857.6  -1111.01-1306.522857.48 829.924 1402.72
        6190.35 -1111.01-1306.38
CORD2R   36              0.      0.      0.      0.      0.     1.
        1.       0.      0.
ENDDATA 7031ab02
