CEND
ECHO = NONE
TITLE = N2A STATIC AEROELASTIC AND FLUTTER MODEL
SUBCASE 1
    DISPLACEMENT(PLOT) = ALL
    LOAD = 1
    SPCFORCES(PLOT) = ALL
    STRAIN(PLOT,VONMISES,FIBER,CENTER) = ALL
    STRESS(PLOT,VONMISES,CENTER) = ALL
    SUPORT = 1
BEGIN BULK
$PARAMS
PARAM     AUNITS  2.59-3
PARAM    BAILOUT      -1
PARAM   COUPMASS       1
PARAM     GRDPNT       0
PARAM       POST      -1
PARAM   PRTMAXIM     YES
PARAM     WTMASS  2.59-3
$NODES
$ELEMENTS
CQUAD4     20018       3   20031   20029   20030   20033
CQUAD4     20019       3   20033   20040   20039   20031
CQUAD4     20020       1   21367   21366   20045   20044       0
CQUAD4     20021       1   21366   20849   20046   20045       0
CQUAD4     20022       1   20849   21125   20048   20047       0
CQUAD4     20023       1   21125   21124   20049   20048       0
CQUAD4     20024       1   21124   21123   20050   20049       0
CQUAD4     20025       1   21123   20036   21839   20050       0
CTRIA3     20026       1   21493   20028   20585       0
CQUAD4     20027       1   21493   20585   20586   21492       0
CQUAD4     20028       1   21492   20586   20587   21491       0
CQUAD4     20029       1   21491   20587   20588   21490       0
CQUAD4     20030       1   20891   21066   20051   20042       0
CQUAD4     20031       1   21066   21067   20052   20051       0
CQUAD4     20032       1   21067   21630   20053   20052       0
CQUAD4     20033       1   21630   21629   20054   20053       0
CQUAD4     20034       1   21629   21628   20055   20054       0
CQUAD4     20035       1   21628   21627   20056   20055       0
CQUAD4     20036       1   21627   21626   20057   20056       0
CQUAD4     20037       1   21626   21625   20058   20057       0
CQUAD4     20038       1   21625   21624   20059   20058       0
CQUAD4     20039       1   21624   21623   20060   20059       0
CQUAD4     20040       1   21623   21622   20061   20060       0
CQUAD4     20041       1   21622   21621   20062   20061       0
CQUAD4     20042       1   21621   21620   20063   20062       0
CQUAD4     20043       1   21620   21619   20064   20063       0
CQUAD4     20044       1   21619   21618   20065   20064       0
CQUAD4     20045       1   21618   21617   20066   20065       0
CQUAD4     20046       1   21617   21616   20067   20066       0
$ ... 107 like lines cut
CTRIA3     20154       1   20171   20045   20046       0
CQUAD4     20155       1   20046   20169   20172   20171       0
CQUAD4     20156       1   20049   20050   20126   20174       0
CQUAD4     20157       1   20073   20165   20166   20072       0
CQUAD4     20158       1   20072   20166   20175   20071       0
CQUAD4     20159       1   20051   20052   20176   20130       0
CQUAD4     20160       1   20176   20052   20053   20054       0
CQUAD4     20161       1   20054   20055   20177   20176       0
CQUAD4     20162       1   20055   20056   20178   20177       0
CQUAD4     20163       1   20056   20057   20179   20178       0
CQUAD4     20164       1   20057   20058   20180   20179       0
CQUAD4     20165       1   20058   20059   20181   20180       0
CQUAD4     20166       1   20059   20060   20182   20181       0
CQUAD4     20167       1   20060   20061   20183   20182       0
CQUAD4     20168       1   20061   20062   20184   20183       0
CQUAD4     20169       1   20062   20063   20185   20184       0
CQUAD4     20170       1   20063   20064   20186   20185       0
CQUAD4     20171       1   20064   20065   20187   20186       0
CQUAD4     20172       1   20065   20066   20188   20187       0
CQUAD4     20173       1   20066   20067   20189   20188       0
CQUAD4     20174       1   20067   20068   20190   20189       0
$ ... 10 like lines cut
CTRIA3     20185       1   20132   20194   20192       0
CQUAD4     20186       1   20123   20124   20192   20195       0
CQUAD4     20187       1   20122   20123   20195   20196       0
CQUAD4     20188       1   20121   20122   20196   20197       0
CQUAD4     20189       1   20120   20121   20197   20198       0
CQUAD4     20190       1   20119   20120   20198   20199       0
CQUAD4     20191       1   20118   20119   20199   20200       0
CQUAD4     20192       1   20117   20118   20200   20201       0
CQUAD4     20193       1   20116   20117   20201   20202       0
CQUAD4     20194       1   20115   20116   20202   20203       0
CQUAD4     20195       1   20114   20115   20203   20204       0
CQUAD4     20196       1   20113   20114   20204   20205       0
CQUAD4     20197       1   20112   20113   20205   20206       0
CQUAD4     20198       1   20111   20112   20206   20207       0
CQUAD4     20199       1   20110   20111   20207   20208       0
CQUAD4     20200       1   20109   20110   20208   20209       0
CQUAD4     20201       1   20108   20109   20209   20210       0
CQUAD4     20202       1   20107   20108   20210   20211       0
CQUAD4     20203       1   20106   20107   20211   20212       0
CQUAD4     20204       1   20105   20106   20212   20213       0
CQUAD4     20205       1   20104   20105   20213   20214       0
$ ... 151 like lines cut
CTRIA3     20357       1   20367   20294   20293       0
CQUAD4     20358       1   20295   20294   20367   20368       0
CQUAD4     20359       1   20296   20295   20368   20369       0
CQUAD4     20360       1   20297   20296   20369   20370       0
CQUAD4     20361       1   20298   20297   20370   20371       0
CQUAD4     20362       1   20299   20298   20371   20372       0
CQUAD4     20363       1   20300   20299   20372   20373       0
CQUAD4     20364       1   20301   20300   20373   20374       0
CQUAD4     20365       1   20302   20301   20374   20375       0
CQUAD4     20366       1   20303   20302   20375   20376       0
CQUAD4     20367       1   20304   20303   20376   20377       0
CQUAD4     20368       1   20305   20304   20377   20378       0
CQUAD4     20369       1   20306   20305   20378   20379       0
CQUAD4     20370       1   20307   20306   20379   20380       0
CQUAD4     20371       1   20308   20307   20380   20381       0
CQUAD4     20372       1   20309   20308   20381   20382       0
CQUAD4     20373       1   20310   20309   20382   20383       0
CQUAD4     20374       1   20311   20310   20383   20384       0
CQUAD4     20375       1   20312   20311   20384   20385       0
CQUAD4     20376       1   20313   20312   20385   20412       0
CQUAD4     20377       1   20316   20315   20423   20386       0
$ ... 26 like lines cut
CTRIA3     20404       1   20413   20290   20289       0
CQUAD4     20405       1   20289   20288   20414   20413       0
CQUAD4     20406       1   20288   20287   20415   20414       0
CQUAD4     20407       1   20287   20286   20416   20415       0
CQUAD4     20408       1   20286   20285   20417   20416       0
CQUAD4     20409       1   20285   20284   20418   20417       0
CQUAD4     20410       1   20284   20283   20419   20418       0
CQUAD4     20411       1   20283   20282   20420   20419       0
CQUAD4     20412       1   20282   20281   20421   20420       0
CQUAD4     20413       1   20281   20280   20422   20421       0
CQUAD4     20414       1   20280   20279   20320   20422       0
CQUAD4     20415       1   20291   20290   20413   20392       0
CQUAD4     20416       1   20313   20412   20411   20314       0
CQUAD4     20417       1   20314   20411   20410   20315       0
CQUAD4     20418       1   20315   20410   20409   20423       0
CQUAD4     20419       1   20386   20423   20409   20408       0
CQUAD4     20420       1   20386   20408   20407   20387       0
CQUAD4     20421       1   20407   20406   20424   20387       0
CQUAD4     20422       1   20406   20405   20425   20424       0
CQUAD4     20423       1   20405   20404   20426   20425       0
CQUAD4     20424       1   20404   20403   20427   20426       0
$ ... 12 like lines cut
CTRIA3     20437       1   20439   20420   20421       0
CQUAD4     20438       1   20421   20422   20440   20439       0
CQUAD4     20439       1   20422   20320   20391   20440       0
CQUAD4     20440       1   20417   20418   20432   20433       0
CQUAD4     20441       1   20415   20416   20434   20435       0
CQUAD4     20442       1   20416   20417   20433   20434       0
CQUAD4     20443       1   20415   20435   20436   20414       0
CQUAD4     20444       1   20436   20394   20393   20441       0
CQUAD4     20445       1   20393   20392   20413   20441       0
CQUAD4     20446       1   20413   20414   20436   20441       0
CQUAD4     20447       1   20388   20425   20426   20389       0
CQUAD4     20448       1   20418   20437   20431   20432       0
CQUAD4     20449       1   20437   20438   20430   20431       0
CQUAD4     20450       1   20438   20439   20429   20430       0
CQUAD4     20451       1   20439   20440   20442   20429       0
CQUAD4     20452       1   20440   20391   20390   20442       0
CTRIA3     20453       1   20442   20428   20429       0
CQUAD4     20454       1   20427   20428   20442   20390       0
CQUAD4     20455       1   20426   20427   20390   20389       0
CQUAD4     20456       1   20347   20346   20382   20381       0
CQUAD4     20457       1   20346   20345   20383   20382       0
CQUAD4     20458       1   20348   20347   20381   20380       0
CQUAD4     20459       1   20349   20348   20380   20379       0
CQUAD4     20460       1   20350   20349   20379   20378       0
CQUAD4     20461       1   20351   20350   20378   20377       0
CQUAD4     20462       1   20352   20351   20377   20376       0
CQUAD4     20463       1   20353   20352   20376   20375       0
CQUAD4     20464       1   20354   20353   20375   20374       0
CQUAD4     20465       1   20355   20354   20374   20373       0
CQUAD4     20466       1   20356   20355   20373   20372       0
CQUAD4     20467       1   20357   20356   20372   20371       0
CQUAD4     20468       1   20358   20357   20371   20370       0
CQUAD4     20469       1   20359   20358   20370   20369       0
CQUAD4     20470       1   20360   20359   20369   20368       0
CQUAD4     20471       1   20361   20360   20368   20367       0
CQUAD4     20472       1   20362   20361   20367   20366       0
CTRIA3     20473       1   20129   20044   20133       0
CQUAD4     20474       1   20048   20049   20174   20444       0
CQUAD4     20475       1   20173   20047   20048   20444       0
CQUAD4     20476       1   20170   20175   20167   20271       0
CQUAD4     20477       1   20271   20276   20191   20170       0
CQUAD4     20478       1   20277   20272   20273   20445       0
CQUAD4     20479       1   20320   20279   20277   20445       0
CQUAD4     20480       1   20344   20343   20385   20384       0
CQUAD4     20481       1   20384   20383   20345   20344       0
CQUAD4     20482       1   20074   20589   20590   20446       0
CQUAD4     20483       1   20590   20591   20165   20446       0
CQUAD4     20484       1   20165   20073   20074   20446       0
CQUAD4     20485       1   20625   20626   20128   20447       0
CQUAD4     20486       1   20128   21368   20129   20447       0
CQUAD4     20487       1   20129   20133   20625   20447       0
CQUAD4     20488       1   20240   20239   20365   20448       0
CQUAD4     20489       1   20365   20173   20444   20448       0
CQUAD4     20490       1   20445   20273   20319   20449       0
CQUAD4     20491       1   20319   20390   20391   20449       0
CQUAD4     20492       1   20391   20320   20445   20449       0
CQUAD4     20493       1   20443   20364   20363   20450       0
$ ... 84 like lines cut
CTRIA3     20578       1   20512   20555   20551       0
CTRIA3     20579       1   20514   20556   20553       0
CQUAD4     20580       1   20531   20532   20551   20557       0
CQUAD4     20581       1   20530   20531   20557   20558       0
CQUAD4     20582       1   20529   20530   20558   20559       0
CQUAD4     20583       1   20528   20529   20559   20560       0
CQUAD4     20584       1   20527   20528   20560   20561       0
CQUAD4     20585       1   20526   20527   20561   20562       0
CQUAD4     20586       1   20525   20526   20562   20563       0
CQUAD4     20587       1   20524   20525   20563   20564       0
CQUAD4     20588       1   20523   20524   20564   20547       0
CQUAD4     20589       1   20562   20561   20565   20571       0
CQUAD4     20590       1   20561   20560   20566   20565       0
CQUAD4     20591       1   20560   20559   20567   20566       0
CQUAD4     20592       1   20559   20558   20568   20567       0
CQUAD4     20593       1   20558   20557   20569   20568       0
CQUAD4     20594       1   20557   20551   20555   20569       0
CQUAD4     20595       1   20545   20562   20571   20544       0
CQUAD4     20596       1   20571   20565   20543   20544       0
CQUAD4     20597       1   20535   20536   20572   20570       0
CQUAD4     20598       1   20536   20537   20578   20572       0
CQUAD4     20599       1   20537   20538   20577   20578       0
$ ... 198 like lines cut
CTRIA3     20798       1   20761   20758   20759       0
CQUAD4     20799       1   20767   20753   20754   20769       0
CQUAD4     20800       1   20754   20755   20768   20769       0
CQUAD4     20801       1   20768   20760   20767   20769       0
CQUAD4     20802       1   20768   20755   20764   20770       0
CQUAD4     20803       1   20770   20764   20763   20771       0
CQUAD4     20804       1   20763   21400   21399   20771       0
CQUAD4     20805       1   21637   21636   20760   20772       0
CQUAD4     20806       1   20760   20768   20770   20772       0
CQUAD4     20807       1   20770   20771   21637   20772       0
CQUAD4     20808       1   20771   21399   20899   21637       0
CQUAD4     20809       1   20036   21123   21368   21780       0
CQUAD4     20810       1   21368   21123   21124   21367       0
CQUAD4     20811       1   21125   21366   21367   21124       0
CTRIA3     20812       1   21366   21125   20849       0
CQUAD4     20813       1   21787   20901   20794   21139       0
CQUAD4     20814       1   20901   20900   20795   20794       0
CQUAD4     20815       1   20900   20891   20796   20795       0
CQUAD4     20816       1   20891   20042   20797   20796       0
CQUAD4     20817       1   20042   20041   20798   20797       0
CQUAD4     20818       1   20041   20040   20799   20798       0
CQUAD4     20819       1   20040   20039   20800   20799       0
CQUAD4     20820       1   20039   20038   20801   20800       0
CQUAD4     20821       1   20038   21393   20802   20801       0
CQUAD4     20822       1   21393   21781   20803   20802       0
CQUAD4     20823       1   21781   21782   20804   20803       0
CQUAD4     20824       1   21782   20886   21126   20804       0
CQUAD4     20825       1   21126   21127   20805   20804       0
CQUAD4     20826       1   21127   21128   20806   20805       0
CQUAD4     20827       1   21128   21129   20807   20806       0
CQUAD4     20828       1   21129   21130   20808   20807       0
CQUAD4     20829       1   21130   21131   20809   20808       0
CQUAD4     20830       1   21131   21132   20810   20809       0
CQUAD4     20831       1   21132   21133   20811   20810       0
CQUAD4     20832       1   21133   21134   20812   20811       0
$ ... 9 like lines cut
CTRIA3     20842       1   20820   20808   20809       0
CQUAD4     20843       1   20809   20810   20821   20820       0
CQUAD4     20844       1   20821   20810   20811   20812       0
CQUAD4     20845       1   20812   20813   20822   20821       0
CTRIA3     20846       1   20822   20813   20814       0
CQUAD4     20847       1   20814   20815   20823   20836       0
CQUAD4     20848       1   20815   20816   20824   20823       0
CQUAD4     20849       1   20816   20794   20795   20824       0
CQUAD4     20850       1   20802   20803   20817   20825       0
CTRIA3     20851       1   20825   20801   20802       0
CQUAD4     20852       1   20800   20801   20825   20826       0
CQUAD4     20853       1   20796   20797   20827   20828       0
CQUAD4     20854       1   20795   20796   20828   20824       0
CQUAD4     20855       1   20817   20818   20829   20825       0
CQUAD4     20856       1   20818   20819   20830   20829       0
CQUAD4     20857       1   20819   20820   20831   20830       0
CQUAD4     20858       1   20820   20821   20822   20831       0
CQUAD4     20859       1   20824   20828   20832   20823       0
CQUAD4     20860       1   20826   20825   20829   20833       0
CQUAD4     20861       1   20836   20823   20832   20834       0
CQUAD4     20862       1   20833   20829   20830   20834       0
CQUAD4     20863       1   20830   20831   20836   20834       0
CQUAD4     20864       1   20827   20826   20833   20835       0
CQUAD4     20865       1   20833   20834   20832   20835       0
CQUAD4     20866       1   20832   20828   20827   20835       0
CQUAD4     20867       1   20814   20836   20831   20822       0
CQUAD4     20868       1   20827   20797   20798   20799       0
CQUAD4     20869       1   20799   20800   20826   20827       0
CQUAD4     20870       1   20885   20024   20902   21467       0
CQUAD4     20871       1   20024   20023   20903   20902       0
$ ... 372 like lines cut
CTRIA3     21244       3   21634   20035   21654
CQUAD4     21245       3   21939   20899   21637   21657
CQUAD4     21246       3   21657   21637   21636   21656
CQUAD4     21247       3   21655   21656   21636   21635
CTRIA3     21248       3   21635   21634   21654
CTRIA3     21249       3   21654   21655   21635
CQUAD4     21250       2   20018   20875   21266   21433       0
CQUAD4     21251       2   21433   21266   21267   21432       0
CQUAD4     21252       2   21432   21267   21268   21431       0
CQUAD4     21253       2   21431   21268   21269   21430       0
CQUAD4     21254       2   21430   21269   21270   21429       0
CQUAD4     21255       2   21429   21270   21271   21428       0
CQUAD4     21256       2   21428   21271   21272   21427       0
CQUAD4     21257       2   21427   21272   21273   21426       0
CQUAD4     21258       2   21426   21273   21274   21425       0
CQUAD4     21259       2   21425   21274   21275   21424       0
CQUAD4     21260       2   21424   21275   20864   20037       0
CQUAD4     21261       2   20875   20876   21276   21266       0
CQUAD4     21262       2   21266   21276   21277   21267       0
CQUAD4     21263       2   21267   21277   21278   21268       0
CQUAD4     21264       2   21268   21278   21279   21269       0
CQUAD4     21265       2   21269   21279   21280   21270       0
CQUAD4     21266       2   21270   21280   21281   21271       0
CQUAD4     21267       2   21271   21281   21282   21272       0
CQUAD4     21268       2   21272   21282   21283   21273       0
CQUAD4     21269       2   21273   21283   21284   21274       0
$ ... 434 like lines cut
CTRIA3     21704       2   21903   21871   21872       0
CQUAD4     21705       2   21871   21903   21904   21870       0
CQUAD4     21706       2   21870   21904   21852   21869       0
CQUAD4     21707       2   21848   21905   21889   21849       0
CTRIA3     21708       2   21905   21848   21847       0
CQUAD4     21709       2   21846   21906   21905   21847       0
CQUAD4     21710       2   21845   21907   21906   21846       0
CQUAD4     21711       2   21844   21867   21907   21845       0
CQUAD4     21712       2   21866   21908   21907   21867       0
CQUAD4     21713       2   21865   21909   21908   21866       0
CQUAD4     21714       2   21864   21910   21909   21865       0
CQUAD4     21715       2   21863   21911   21910   21864       0
CQUAD4     21716       2   21862   21912   21911   21863       0
CQUAD4     21717       2   21861   21913   21912   21862       0
CQUAD4     21718       2   21860   21914   21913   21861       0
CQUAD4     21719       2   21859   21915   21914   21860       0
CQUAD4     21720       2   21858   21916   21915   21859       0
CQUAD4     21721       2   21857   21917   21916   21858       0
CQUAD4     21722       2   21856   21918   21917   21857       0
CQUAD4     21723       2   21855   21919   21918   21856       0
CQUAD4     21724       2   21854   21920   21919   21855       0
CTRIA3     21725       2   21920   21854   21853       0
CQUAD4     21726       2   21904   21903   21920   21853       0
CQUAD4     21727       2   21903   21902   21919   21920       0
CQUAD4     21728       2   21902   21901   21918   21919       0
CQUAD4     21729       2   21901   21900   21917   21918       0
CQUAD4     21730       2   21889   21905   21921   21890       0
CQUAD4     21731       2   21890   21921   21922   21891       0
CQUAD4     21732       2   21891   21922   21923   21892       0
CQUAD4     21733       2   21892   21923   21924   21893       0
CQUAD4     21734       2   21893   21924   21925   21894       0
CQUAD4     21735       2   21894   21925   21926   21895       0
CQUAD4     21736       2   21895   21926   21927   21896       0
CQUAD4     21737       2   21896   21927   21928   21897       0
CQUAD4     21738       2   21897   21928   21929   21898       0
CQUAD4     21739       2   21898   21929   21930   21899       0
CTRIA3     21740       2   21917   21900   21899       0
CQUAD4     21741       2   21899   21930   21916   21917       0
CQUAD4     21742       2   21929   21915   21916   21930       0
CQUAD4     21743       2   21907   21908   21931   21906       0
CQUAD4     21744       2   21906   21931   21921   21905       0
CQUAD4     21745       2   21909   21932   21931   21908       0
CQUAD4     21746       2   21910   21933   21932   21909       0
CQUAD4     21747       2   21911   21934   21933   21910       0
CQUAD4     21748       2   21912   21935   21934   21911       0
CQUAD4     21749       2   21913   21936   21935   21912       0
CQUAD4     21750       2   21914   21937   21936   21913       0
CQUAD4     21751       2   21915   21929   21928   21914       0
CQUAD4     21752       2   21927   21937   21914   21928       0
CQUAD4     21753       2   21937   21927   21926   21936       0
CQUAD4     21754       2   21931   21932   21922   21921       0
CQUAD4     21755       2   21932   21933   21923   21922       0
CQUAD4     21756       2   21933   21934   21924   21923       0
CQUAD4     21757       2   21935   21925   21924   21934       0
CQUAD4     21758       2   21925   21935   21936   21926       0
CQUAD4     21759       2   21886   21850   21849   21889       0
CQUAD4     21760       2   21850   21886   21887   21851       0
CTRIA3     21761       1   20901   21787   21633       0
CQUAD4     21762       1   20901   21633   21785   20900       0
CTRIA3     21763       1   21630   21067   21784       0
CQUAD4     21764       1   21785   21784   21067   21066       0
CQUAD4     21765       1   21066   20891   20900   21785       0
CQUAD4     21766       3   20037   21945   21946   21424
CQUAD4     21767       3   21945   21944   21947   21946
CQUAD4     21768       3   21944   21943   21948   21947
CQUAD4     21769       3   21943   20002   20017   21948
CQUAD4     21770       3   21424   21946   21949   21425
CQUAD4     21771       3   21946   21947   21950   21949
CQUAD4     21772       3   21947   21948   21951   21950
CQUAD4     21773       3   21948   20017   20016   21951
CQUAD4     21774       3   21425   21949   21952   21426
CQUAD4     21775       3   21949   21950   21953   21952
CQUAD4     21776       3   21950   21951   21954   21953
CQUAD4     21777       3   21951   20016   20015   21954
CQUAD4     21778       3   21426   21952   21955   21427
CQUAD4     21779       3   21952   21953   21956   21955
CQUAD4     21780       3   21953   21954   21957   21956
CQUAD4     21781       3   21954   20015   20014   21957
CQUAD4     21782       3   21427   21955   21958   21428
CQUAD4     21783       3   21955   21956   21959   21958
$ ... 267 like lines cut
CBAR       22052       4   21788   21789   0.0+0   0.0+0     -1.
                           0.0+0   0.0+0     -9.   0.0+0   0.0+0     -9.
CBAR       22053       4   21789   21790   0.0+0   0.0+0     -1.
                           0.0+0   0.0+0     -9.   0.0+0   0.0+0     -9.
CBAR       22054       4   21790   21791   0.0+0   0.0+0     -1.
                           0.0+0   0.0+0     -9.   0.0+0   0.0+0     -9.
CBAR       22055       4   21791   21792   0.0+0   0.0+0     -1.
                           0.0+0   0.0+0     -9.   0.0+0   0.0+0     -9.
CBAR       22056       4   21792   21793   0.0+0   0.0+0     -1.
                           0.0+0   0.0+0     -9.   0.0+0   0.0+0     -9.
CBAR       22057       4   21793   21794   0.0+0   0.0+0     -1.
                           0.0+0   0.0+0     -9.   0.0+0   0.0+0     -9.
CBAR       22058       4   21794   21795   0.0+0   0.0+0     -1.
                           0.0+0   0.0+0     -9.   0.0+0   0.0+0     -9.
CBAR       22059       4   21795   21796   0.0+0   0.0+0     -1.
                           0.0+0   0.0+0     -9.   0.0+0   0.0+0     -9.
CBAR       22060       4   21796   21797   0.0+0   0.0+0     -1.
                           0.0+0   0.0+0     -9.   0.0+0   0.0+0     -9.
CBAR       22061       4   21797   21798   0.0+0   0.0+0     -1.
                           0.0+0   0.0+0     -9.   0.0+0   0.0+0     -9.
CBAR       22062       4   21798   21799   0.0+0   0.0+0     -1.
                           0.0+0   0.0+0     -9.   0.0+0   0.0+0     -9.
CBAR       22063       4   21799   21800   0.0+0   0.0+0     -1.
                           0.0+0   0.0+0     -9.   0.0+0   0.0+0     -9.
CBAR       22064       4   21800   21801   0.0+0   0.0+0     -1.
                           0.0+0   0.0+0     -9.   0.0+0   0.0+0     -9.
CBAR       22065       4   21801   21802   0.0+0   0.0+0     -1.
                           0.0+0   0.0+0     -9.   0.0+0   0.0+0     -9.
CBAR       22069       4   21802   21803   0.0+0   0.0+0     -1.
                           0.0+0   0.0+0     -9.   0.0+0   0.0+0     -9.
CBAR       22070       4   21803   21804   0.0+0   0.0+0     -1.
                           0.0+0   0.0+0     -9.   0.0+0   0.0+0     -9.
CBAR       22071       4   21804   21805   0.0+0   0.0+0     -1.
                           0.0+0   0.0+0     -9.   0.0+0   0.0+0     -9.
CBAR       22072       4   21805   21806   0.0+0   0.0+0     -1.
                           0.0+0   0.0+0     -9.   0.0+0   0.0+0     -9.
CBAR       22073       4   21806   21807   0.0+0   0.0+0     -1.
                           0.0+0   0.0+0     -9.   0.0+0   0.0+0     -9.
CBAR       22074       4   21807   21808   0.0+0   0.0+0     -1.
                           0.0+0   0.0+0     -9.   0.0+0   0.0+0     -9.
$ ... 64 like lines cut
$PROPERTIES
PCOMP          1     1.5 1.549-2                   0.0+0   0.0+0     SYM
               1   3.7-2   0.0+0     YES       1   3.7-2     45.     YES
               1   3.7-2    -45.     YES       1   3.7-2     90.     YES
               2      .5   0.0+0     YES
PCOMP          2      5. 1.549-2                   0.0+0   0.0+0     SYM
               1      1.   0.0+0     YES       1      1.     45.     YES
               1      1.    -45.     YES       1      1.     90.     YES
               2      1.   0.0+0     YES
PCOMP          3      5. 1.549-2                   0.0+0   0.0+0     SYM
               1      1.   0.0+0     YES       1      1.     45.     YES
               1      1.    -45.     YES       1      1.     90.     YES
               2      1.   0.0+0     YES
PCOMP       1101   0.0+0 1.549-2                                     SYM
               1   3.7-2   0.0+0               1   3.7-2     45.
               1   3.7-2    -45.               1   3.7-2     90.
               2      .5   0.0+0
PCOMP       1501   0.0+0 1.549-2                                     SYM
               1   3.7-2   0.0+0               1   3.7-2     45.
               1   3.7-2    -45.               1   3.7-2     90.
               2      .5   0.0+0
PCOMP       1601   0.0+0 1.549-2                                     SYM
               1   3.7-2   0.0+0               1   3.7-2     45.
               1   3.7-2    -45.               1   3.7-2     90.
               2      .5   0.0+0
PCOMP       1701   0.0+0 1.549-2                                     SYM
               1   3.7-2   0.0+0               1   3.7-2     45.
               1   3.7-2    -45.               1   3.7-2     90.
               2      .5   0.0+0
PCOMP       1801   0.0+0 1.549-2                                     SYM
               1   3.7-2   0.0+0               1   3.7-2     45.
               1   3.7-2    -45.               1   3.7-2     90.
               2      .5   0.0+0
PCOMP       1901   0.0+0 1.549-2                                     SYM
               1   3.7-2   0.0+0               1   3.7-2     45.
               1   3.7-2    -45.               1   3.7-2     90.
               2      .5   0.0+0
PCOMP       2101   0.0+0 1.549-2                                     SYM
               1   3.7-2   0.0+0               1   3.7-2     45.
               1   3.7-2    -45.               1   3.7-2     90.
               2      .5   0.0+0
PCOMP       2501   0.0+0 1.549-2                                     SYM
               1   3.7-2   0.0+0               1   3.7-2     45.
               1   3.7-2    -45.               1   3.7-2     90.
               2      .5   0.0+0
PCOMP       2601   0.0+0 1.549-2                                     SYM
               1   3.7-2   0.0+0               1   3.7-2     45.
               1   3.7-2    -45.               1   3.7-2     90.
               2      .5   0.0+0
PCOMP       2701   0.0+0 1.549-2                                     SYM
               1   3.7-2   0.0+0               1   3.7-2     45.
               1   3.7-2    -45.               1   3.7-2     90.
               2      .5   0.0+0
PCOMP       2801   0.0+0 1.549-2                                     SYM
               1   3.7-2   0.0+0               1   3.7-2     45.
               1   3.7-2    -45.               1   3.7-2     90.
               2      .5   0.0+0
PCOMP       2901   0.0+0 1.549-2                                     SYM
               1   3.7-2   0.0+0               1   3.7-2     45.
               1   3.7-2    -45.               1   3.7-2     90.
               2      .5   0.0+0
PCOMP      10103   0.0+0 1.549-2                                     SYM
               1   3.7-2   0.0+0               1   3.7-2     45.
               1   3.7-2    -45.               1   3.7-2     90.
               2      .5   0.0+0
PCOMP      10203   0.0+0 1.549-2                                     SYM
               1   3.7-2   0.0+0               1   3.7-2     45.
               1   3.7-2    -45.               1   3.7-2     90.
               2      .5   0.0+0
PCOMP      10301   0.0+0 1.549-2                                     SYM
               1   3.7-2   0.0+0               1   3.7-2     45.
               1   3.7-2    -45.               1   3.7-2     90.
               2      .5   0.0+0
PCOMP      10401   0.0+0 1.549-2                                     SYM
               1   3.7-2   0.0+0               1   3.7-2     45.
               1   3.7-2    -45.               1   3.7-2     90.
               2      .5   0.0+0
PCOMP      10501   0.0+0 1.549-2                                     SYM
               1   3.7-2   0.0+0               1   3.7-2     45.
               1   3.7-2    -45.               1   3.7-2     90.
               2      .5   0.0+0
PCOMP      10601   0.0+0 1.549-2                                     SYM
               1   3.7-2   0.0+0               1   3.7-2     45.
               1   3.7-2    -45.               1   3.7-2     90.
               2      .5   0.0+0
PCOMP      10701   0.0+0 1.549-2                                     SYM
               1   3.7-2   0.0+0               1   3.7-2     45.
               1   3.7-2    -45.               1   3.7-2     90.
               2      .5   0.0+0
PCOMP      10801   0.0+0 1.549-2                                     SYM
               1   3.7-2   0.0+0               1   3.7-2     45.
               1   3.7-2    -45.               1   3.7-2     90.
               2      .5   0.0+0
PCOMP      10901   0.0+0 1.549-2                                     SYM
               1   3.7-2   0.0+0               1   3.7-2     45.
               1   3.7-2    -45.               1   3.7-2     90.
               2      .5   0.0+0
PCOMP      20103   0.0+0 1.549-2                                     SYM
               1   3.7-2   0.0+0               1   3.7-2     45.
               1   3.7-2    -45.               1   3.7-2     90.
               2      .5   0.0+0
PCOMP      20203   0.0+0 1.549-2                                     SYM
               1   3.7-2   0.0+0               1   3.7-2     45.
               1   3.7-2    -45.               1   3.7-2     90.
               2      .5   0.0+0
PCOMP      20301   0.0+0 1.549-2                                     SYM
               1   3.7-2   0.0+0               1   3.7-2     45.
               1   3.7-2    -45.               1   3.7-2     90.
               2      .5   0.0+0
PCOMP      20401   0.0+0 1.549-2                                     SYM
               1   3.7-2   0.0+0               1   3.7-2     45.
               1   3.7-2    -45.               1   3.7-2     90.
               2      .5   0.0+0
PCOMP      20501   0.0+0 1.549-2                                     SYM
               1   3.7-2   0.0+0               1   3.7-2     45.
               1   3.7-2    -45.               1   3.7-2     90.
               2      .5   0.0+0
PCOMP      20601   0.0+0 1.549-2                                     SYM
               1   3.7-2   0.0+0               1   3.7-2     45.
               1   3.7-2    -45.               1   3.7-2     90.
               2      .5   0.0+0
PCOMP      20701   0.0+0 1.549-2                                     SYM
               1   3.7-2   0.0+0               1   3.7-2     45.
               1   3.7-2    -45.               1   3.7-2     90.
               2      .5   0.0+0
PCOMP      20801   0.0+0 1.549-2                                     SYM
               1   3.7-2   0.0+0               1   3.7-2     45.
               1   3.7-2    -45.               1   3.7-2     90.
               2      .5   0.0+0
PCOMP      20901   0.0+0 1.549-2                                     SYM
               1   3.7-2   0.0+0               1   3.7-2     45.
               1   3.7-2    -45.               1   3.7-2     90.
               2      .5   0.0+0
PCOMP      30103   0.0+0 1.549-2                                     SYM
               1   3.7-2   0.0+0               1   3.7-2     45.
               1   3.7-2    -45.               1   3.7-2     90.
               2      .5   0.0+0
PCOMP      30105   0.0+0 1.549-2                                     SYM
               1   3.7-2   0.0+0               1   3.7-2     45.
               1   3.7-2    -45.               1   3.7-2     90.
               2      .5   0.0+0
PCOMP      30106   0.0+0 1.549-2                                     SYM
               1   3.7-2   0.0+0               1   3.7-2     45.
               1   3.7-2    -45.               1   3.7-2     90.
               2      .5   0.0+0
PCOMP      30113   0.0+0 1.549-2                                     SYM
               1   3.7-2   0.0+0               1   3.7-2     45.
               1   3.7-2    -45.               1   3.7-2     90.
               2      .5   0.0+0
PCOMP      30302   0.0+0 1.549-2                                     SYM
               1   3.7-2   0.0+0               1   3.7-2     45.
               1   3.7-2    -45.               1   3.7-2     90.
               2      .5   0.0+0
PCOMP      30303   0.0+0 1.549-2                                     SYM
               1   3.7-2   0.0+0               1   3.7-2     45.
               1   3.7-2    -45.               1   3.7-2     90.
               2      .5   0.0+0
PCOMP      30304   0.0+0 1.549-2                                     SYM
               1   3.7-2   0.0+0               1   3.7-2     45.
               1   3.7-2    -45.               1   3.7-2     90.
               2      .5   0.0+0
PCOMP      30602   0.0+0 1.549-2                                     SYM
               1   3.7-2   0.0+0               1   3.7-2     45.
               1   3.7-2    -45.               1   3.7-2     90.
               2      .5   0.0+0
PCOMP      30603   0.0+0 1.549-2                                     SYM
               1   3.7-2   0.0+0               1   3.7-2     45.
               1   3.7-2    -45.               1   3.7-2     90.
               2      .5   0.0+0
PCOMP      30802   0.0+0 1.549-2                                     SYM
               1   3.7-2   0.0+0               1   3.7-2     45.
               1   3.7-2    -45.               1   3.7-2     90.
               2      .5   0.0+0
PCOMP      30803   0.0+0 1.549-2                                     SYM
               1   3.7-2   0.0+0               1   3.7-2     45.
               1   3.7-2    -45.               1   3.7-2     90.
               2      .5   0.0+0
PCOMP      40105   0.0+0 1.549-2                                     SYM
               1   3.7-2   0.0+0               1   3.7-2     45.
               1   3.7-2    -45.               1   3.7-2     90.
               2      .5   0.0+0
PCOMP      40203   0.0+0 1.549-2                                     SYM
               1   3.7-2   0.0+0               1   3.7-2     45.
               1   3.7-2    -45.               1   3.7-2     90.
               2      .5   0.0+0
PCOMP      40301   0.0+0 1.549-2                                     SYM
               1   3.7-2   0.0+0               1   3.7-2     45.
               1   3.7-2    -45.               1   3.7-2     90.
               2      .5   0.0+0
PCOMP      40402   0.0+0 1.549-2                                     SYM
               1   3.7-2   0.0+0               1   3.7-2     45.
               1   3.7-2    -45.               1   3.7-2     90.
               2      .5   0.0+0
PCOMP      40403   0.0+0 1.549-2                                     SYM
               1   3.7-2   0.0+0               1   3.7-2     45.
               1   3.7-2    -45.               1   3.7-2     90.
               2      .5   0.0+0
PCOMP      40502   0.0+0 1.549-2                                     SYM
               1   3.7-2   0.0+0               1   3.7-2     45.
               1   3.7-2    -45.               1   3.7-2     90.
               2      .5   0.0+0
PCOMP      40602   0.0+0 1.549-2                                     SYM
               1   3.7-2   0.0+0               1   3.7-2     45.
               1   3.7-2    -45.               1   3.7-2     90.
               2      .5   0.0+0
PCOMP      40702   0.0+0 1.549-2                                     SYM
               1   3.7-2   0.0+0               1   3.7-2     45.
               1   3.7-2    -45.               1   3.7-2     90.
               2      .5   0.0+0
PCOMP      40802   0.0+0 1.549-2                                     SYM
               1   3.7-2   0.0+0               1   3.7-2     45.
               1   3.7-2    -45.               1   3.7-2     90.
               2      .5   0.0+0
PCOMP      40902   0.0+0 1.549-2                                     SYM
               1   3.7-2   0.0+0               1   3.7-2     45.
               1   3.7-2    -45.               1   3.7-2     90.
               2      .5   0.0+0
PCOMP      41001   0.0+0 1.549-2                                     SYM
               1   3.7-2   0.0+0               1   3.7-2     45.
               1   3.7-2    -45.               1   3.7-2     90.
               2      .5   0.0+0
PCOMP      41002   0.0+0 1.549-2                                     SYM
               1   3.7-2   0.0+0               1   3.7-2     45.
               1   3.7-2    -45.               1   3.7-2     90.
               2      .5   0.0+0
PCOMP     701512   0.0+0 1.549-2                   0.0+0   0.0+0     SYM
          300704   3.7-2   0.0+0     YES  300704   3.7-2     45.     YES
          300704   3.7-2    -45.     YES  300704   3.7-2     90.     YES
          300705      .5   0.0+0     YES
PCOMP     801812   0.0+0 1.549-2                   0.0+0   0.0+0     SYM
          300704   3.7-2   0.0+0     YES  300704   3.7-2     45.     YES
          300704   3.7-2    -45.     YES  300704   3.7-2     90.     YES
          300705      .5   0.0+0     YES
PCOMP     901512   0.0+0 1.549-2                   0.0+0   0.0+0     SYM
          300704   3.7-2   0.0+0     YES  300704   3.7-2     45.     YES
          300704   3.7-2    -45.     YES  300704   3.7-2     90.     YES
          300705      .5   0.0+0     YES
PCOMP     901612   0.0+0 1.549-2                   0.0+0   0.0+0     SYM
          300704   3.7-2   0.0+0     YES  300704   3.7-2     45.     YES
          300704   3.7-2    -45.     YES  300704   3.7-2     90.     YES
          300705      .5   0.0+0     YES
PCOMP     901711   0.0+0 1.549-2                   0.0+0   0.0+0     SYM
          300704   3.7-2   0.0+0     YES  300704   3.7-2     45.     YES
          300704   3.7-2    -45.     YES  300704   3.7-2     90.     YES
          300705      .5   0.0+0     YES
PCOMP     901911   0.0+0 1.549-2                   0.0+0   0.0+0     SYM
          300704   3.7-2   0.0+0     YES  300704   3.7-2     45.     YES
          300704   3.7-2    -45.     YES  300704   3.7-2     90.     YES
          300705      .5   0.0+0     YES
PCOMP     902011   0.0+0 1.549-2                   0.0+0   0.0+0     SYM
          300704   3.7-2   0.0+0     YES  300704   3.7-2     45.     YES
          300704   3.7-2    -45.     YES  300704   3.7-2     90.     YES
          300705      .5   0.0+0     YES
$MATERIALS
MAT8           1  1.25+7  9.75+6     .28  1.11+7                   2.4-2
MAT1           2    325. 125000.      .3   1.0-3
MAT8          10  1.25+7  9.75+6     .28  1.11+7                   2.4-2
MAT1          20 992000.  34000.      .3   1.0-3
MAT1          30  1.03+7   3.8+6      .3   2.4-2
MAT8      300704  1.25+7  9.75+6     .28  1.11+7                   2.4-2
MAT1      300705    325. 125000.      .3   1.0-3
$LOADS
$CONSTRAINTS
SUPORT1        1    2357      35
$REJECTS
PBARL          4      30              T2
             10.     24.      1.      1.
$COORDS
CORD2R         1       0      0.      0.      0.      0.      0.      1.
              1.      0.      0.
CORD2R    110000           1420.      0.-46.7727   1420.      0.47.77267
           1421.      0.47.77267
ENDDATA
