$EXECUTIVE CONTROL DECK
SOL 101
CEND
$CASE CONTROL DECK
TITLE = pyNastran Test
SUBCASE 1
    SUBTITLE = Schaum's p.181
    LOAD = 123
    SPCFORCE(PLOT,PRINT)  = ALL
    MPCFORCE(PLOT,PRINT)  = ALL
    $OEF(PLOT,PRINT) = ALL
    OLOAD(PLOT,PRINT) = ALL
    GPSTRESS(PLOT,PRINT) = ALL
    GPSTRAIN(PLOT,PRINT) = ALL
    FORCE(PLOT,PRINT)  = ALL
    DISP(PLOT,PRINT)   = ALL
    STRESS(PLOT,PRINT) = ALL
    STRAIN(PLOT,PRINT) = ALL
BEGIN BULK
$
$        ^ F=1000 lb
$        |
$ 1---A--2   E=10E6 psi
$            Area A=1.0 in^2
$                 J=2.0 in^2
$          stress C=2.0 in^2

PARAM,POST,-1
GRID,1,, 2.,0.,1.
GRID,2,, 5.,0.,2.
GRID,3,, 4.,0.,6.
GRID,4,, 1.,0.,4.
CQUAD4,100, 10,1,2,3,4
PSHELL,10,99, 1.0
MAT1,99,1.0,,0.25
FORCE,123,2,,1000.,3.,5.,0.
ENDDATA
