$pyNastran: punch=True
GRID, 1,, 0., 0., 0.
GRID, 2,, 50., 0., 0.

CBAR, 10, 100, 1, 2, 0., 1., 0.
PBARL, 100, 1000,, T2,,,,,
,10., 24., 1., 1.
$PBARL          4      30        T2                                              
$        10.0000024.000001.0000001.000000

MAT1, 1000, 3.0e7,,0.3
