$pyNastran: punch=True
GRID, 1,, 0., 0., 0.
GRID, 2,, 50., 0., 0.

CBAR, 10, 100, 1, 2, 0., 1., 0.
PBARL, 100, 1000,, I1,,,,,
$ bfoot_2x, tweb, hin, hall
,10., 1., 20., 25.0

MAT1, 1000, 3.0e7,,0.3
