$pyNastran: punch=True
GRID, 1,, 0., 0., 0.
GRID, 2,, 50., 0., 0.

CBEAM, 10, 100, 1, 2, 0., 1., 0.
CBEAM, 11, 100, 1, 2, 0., 1., 0.,GGG
,,,-5.,0.,20., 0.,0.0,30.
PBEAML, 100, 1000,, L,,,,,
$ bflange, hall, tflange, tweb 
,10., 20., 1., 3.

MAT1, 1000, 3.0e7,,0.3
