INIT MASTER(S)
NASTRAN SYSTEM(442)=-1,SYSTEM(319)=1
ID wingbo,FEMAP
SOL SESTATIC
CEND
  TITLE = LINEAR_STATIC_NASTRAN_WING_BOX_ATTACHED_TOGETHER
  ECHO = NONE
  DISPLACEMENT(PRINT) = ALL
  SPCFORCE(PRINT) = ALL
  OLOAD(PRINT) = ALL
  MPCFORCE(PRINT) = ALL
  GPFORCE(PRINT) = ALL
  FORCE(PRINT,CORNER) = ALL
  STRESS(PRINT,CORNER) = ALL
  STRAIN(PRINT,FIBER,CORNER) = ALL
  SPC = 1
  LOAD = 1
BEGIN BULK
$ ***************************************************************************
$   Written by : Femap
$   Version    : 2022.2.1
$   Translator : Simcenter Nastran
$   From Model : C:\Users\ZachLerner\Desktop\PrePoMax_Stuff\bolted_joint_exploration_test\wingbox_stitched_together.modfem
$   Date       : Sun Mar  3 17:57:33 2024
$   Output To  : C:\Users\ZachLerner\Desktop\PrePoMax_Stuff\bolted_joint_exploration_test\LINEAR_STATIC_NASTRAN\
$ ***************************************************************************
$
$ group: name='CBUSH, pid=1'; is_visible=False; elements=2465:2656; nodes=1 6 13 16 52 56 88 92 124 128 160 164 196 200 232 236 268 272 304 308 340 344 375 378 397 414 429 432 465 480 517 520 524 541 584 599 636 639 643 660 703 718 754 766 788 812 873 897 958 961 962 965 988 989 991 998 1001 1010 1013 1022 1025 1034 1037 1046 1049 1058 1061 1070 1073 1090 1106 1110 1118 1122 1130 1134 1142 1146 11
$ group: name='Skin, pid=2'; is_visible=False; elements=1:1632; nodes=1:1683
$ group: name='Spars, pid=3'; is_visible=False; elements=1645:1653 1666:1674 1687:1695 1708:1716 1729:1737 1750:1758 1771:1779 1792:1800 1813:1821 1834:1842 1851:1856 1869:1877 1890:1898 1911:1919 1932:1940 1953:1961 1974:1982 1995:2003 2016:2024 2037:2045 2058:2066 2075:2080 2093:2098 2111:2116 2129:2134 2147:2152 2165:2170 2183:2188 2201:2206 2219:2224 2237:2242 2255:2260 2269:2272 2285:2290 230
$ group: name='SparCaps, pid=4'; is_visible=False; elements=1633:1644 1654:1665 1675:1686 1696:1707 1717:1728 1738:1749 1759:1770 1780:1791 1801:1812 1822:1833 1843:1850 1857:1868 1878:1889 1899:1910 1920:1931 1941:1952 1962:1973 1983:1994 2004:2015 2025:2036 2046:2057 2067:2074 2081:2092 2099:2110 2117:2128 2135:2146 2153:2164 2171:2182 2189:2200 2207:2218 2225:2236 2243:2254 2261:2268 2273:2284 
$ group: name='CBUSH-gnd,pid=5' ; is_visible=False ; elements=2658 ; nodes=2674 2675 
$ group: name='test'; is_visible=False; elements=1633
$ group: name='spar1'; is_visible=False; elements=1633:1856; nodes=1684:1947
$ group: name='spar2'; is_visible=False; elements=1857:2080; nodes=1948:2211
$ group: name='spar3'; is_visible=False; elements=2081:2272; nodes=2212:2442
$ group: name='spar4'; is_visible=False; elements=2273:2464; nodes=2443:2673
PARAM,PRGPST,NO
$
$ skin (pid=2)
$ Elem 2658 1:2656
$ Node 1:2675
$ spars (pid=3)
$Elem 342 344 360 361 362 367 368 369 411 412 413 418 419 420 459 460 461 466 467 468 473 474 475 480 481 482 487 488 489 507 508 509 514 515 516 555 556 557 562 563 564 569 570 571 576 577 578 583 584 585 603 604 605 610 611 612 650 651 652 680 681 682 687 688 689 731 732 733 738 739 740 776 777 778 783 784 785 827 828 829 834 835 836 2658 1:12 17:21:2 22:45 50:54:2 55:78 83:87:2 88:111 116:120:2
$Node 22 23 24 30 31 32 33 64 65 66 70 71 72 100 101 102 106 107 108 136 137 138 142 143 144 172 173 174 178 179 180 208 209 210 214 215 216 244 245 246 250 251 252 280 281 282 286 287 288 316 317 318 322 323 324 352 353 354 358 359 360 383 384 387 388 423 424 489 490 495 496 550 551 556 557 566 567 568 569 574 575 608 609 614 615 669 670 675 676 685 686 687 688 693 694 727 728 733 734 774 775 798
$ spar caps (pid=4)
$Elem 9 11 12 22 85 87 2658 1:7 23:45 55:78 88:111 116:120:2 121:144 149:153:2 154:177 182:186:2 187:210 215:219:2 220:243 248:252:2 253:276 281:309 312:358 360:365 367:372 374:391 395:409 411:416 418:423 428:456 459:463 466:470 473:477 480:484 487:491 494:504 507:511 514:518 527:552 555:559 562:566 569:573 576:580 583:587 590:600 603:607 610:614 623:647 650:654 661:677 680:684 687:691 694:708 715
$Node 22 37 64 65 66 100 101 102 107 108 136 137 138 142 143 144 172 173 174 178 179 180 208 209 210 214 215 216 244 245 246 250 251 252 280 281 282 286 287 288 316 317 318 322 323 324 325 351 352 353 354 550 551 552 553 556 557 558 559 574 575 576 577 608 609 610 611 614 615 616 617 669 670 671 672 675 676 677 678 693 694 695 696 727 728 729 730 733 734 735 736 774 775 776 777 806 807 808 809 812
$
PARAM,POST,-1
PARAM,OGEOM,NO
PARAM,AUTOSPC,NO
PARAM,K6ROT,100.
PARAM,GRDPNT,0
PARAM,WTMASS,.00259
CORD2C         1       0      0.      0.      0.      0.      0.      1.+FEMAPC1
+FEMAPC1      1.      0.      1.        
CORD2S         2       0      0.      0.      0.      0.      0.      1.+FEMAPC2
+FEMAPC2      1.      0.      1.        
$ Femap Load Set 1 : pressure
PLOAD4         1       1 .115475
PLOAD4         1       2.1959794
PLOAD4         1       3.2775739
PLOAD4         1      16.4881524
PLOAD4         1      17.4348119
PLOAD4         1      18.4828392
PLOAD4         1      19.4356597
PLOAD4         1      20.4748159
PLOAD4         1      21.4365353
PLOAD4         1      22.3616416
PLOAD4         1      23 .255516
PLOAD4         1      24.1507894
PLOAD4         1      25.3743776
PLOAD4         1      26.2929201
PLOAD4         1      27.2200146
PLOAD4         1      28.3904289
PLOAD4         1      29.3356129
PLOAD4         1      30.2918171
PLOAD4         1      34.3318678
PLOAD4         1      35.3641624
$ ... 1612 like lines cut
$ Femap Constraint Set 1 : ground
SPC1           1  123456    2675
$ Femap Property 1 : stiff_bush
PBUSH          1       K    1.+9    1.+9    100.    1.+7    1.+7    1.+7                
$ Femap Property 2 : skin
PSHELL         2       1     .04       1               1              0.+       
+             0.                
$ Femap Property 3 : spar_web
PSHELL         3       2     .04       2               2              0.
$ Femap Property 4 : spar_flange
PSHELL         4       2     .07       2               2              0.
$ Femap Property 5 : grounding_bush
PBUSH          5       K    1.+9    1.+9    1.+9    1.+9    1.+9    1.+9                
$ Femap Material 1 : Al_7075_T73
MAT1           1  1.03+7             .31    .101      0.      0.        
$ Femap Material 2 : Al_7050
MAT1           2  1.03+7             .31    .103      0.      0.        
GRID           1       0109.9495-6.22-1528.01168       0
GRID           2       0110.9495-6.23-15 28.0502       0
GRID           3       0110.94952.999994 28.0502       0
GRID           4       0110.94955.999988 28.0502       0
GRID           5       0110.94958.999982 28.0502       0
GRID           6       0109.94958.99998228.01168       0
GRID           7       0109.94955.99998828.01168       0
GRID           8       0109.94952.99999428.01168       0
GRID           9       0106.3629-3.76-1516.92517       0
GRID          10       0106.36292.99999416.92517       0
GRID          11       0106.36295.99998816.92517       0
GRID          12       0106.36298.99998216.92517       0
GRID          13       0109.94958.99998217.49535       0
GRID          14       0109.94955.99998817.49535       0
GRID          15       0109.94952.99999417.49535       0
GRID          16       0109.9495-3.88-1517.49535       0
GRID          17       0103.3695-3.79-1517.07749       0
GRID          18       0100.7142 -4.1-1518.46787       0
GRID          19       0100.71422.99999418.46787       0
GRID          20       0100.71425.99998818.46787       0
$ ... 2655 like lines cut
CQUAD4         1       2       2       1       8       3                
CQUAD4         2       2       3       8       7       4                
CQUAD4         3       2       4       7       6       5                
CQUAD4         4       2      10       9      16      15                
CQUAD4         5       2      11      10      15      14                
CQUAD4         6       2      12      11      14      13                
CQUAD4         7       2      17       9      10      23                
CQUAD4         8       2      18      17      23      19                
CQUAD4         9       2      23      10      11      24                
CQUAD4        10       2      19      23      24      20                
CQUAD4        11       2      24      11      12      22                
CQUAD4        12       2      20      24      22      21                
CQUAD4        13       2      25      18      19      26                
CQUAD4        14       2      26      19      20      27                
CQUAD4        15       2      27      20      21      28                
CQUAD4        16       2      29      25      26      35                
CQUAD4        17       2      30      29      35      31                
CQUAD4        18       2      35      26      27      36                
CQUAD4        19       2      31      35      36      32                
CQUAD4        20       2      36      27      28      34                
$ ... 2444 like lines cut
CBUSH       2465       1    1685    1490.5773503.5773503.5773503        
CBUSH       2466       1    1688    1493.5773503.5773503.5773503        
CBUSH       2467       1    1692      16.5773503.5773503.5773503        
CBUSH       2468       1    1695      13.5773503.5773503.5773503        
CBUSH       2469       1    1696       1.5773503.5773503.5773503        
CBUSH       2470       1    1701       6.5773503.5773503.5773503        
CBUSH       2471       1    1704    1589.5773503.5773503.5773503        
CBUSH       2472       1    1707    1592.5773503.5773503.5773503        
CBUSH       2473       1    1718    1498.5773503.5773503.5773503        
CBUSH       2474       1    1724      56.5773503.5773503.5773503        
CBUSH       2475       1    1728      52.5773503.5773503.5773503        
CBUSH       2476       1    1733    1601.5773503.5773503.5773503        
CBUSH       2477       1    1742    1574.5773503.5773503.5773503        
CBUSH       2478       1    1748      92.5773503.5773503.5773503        
CBUSH       2479       1    1752      88.5773503.5773503.5773503        
CBUSH       2480       1    1757    1610.5773503.5773503.5773503        
CBUSH       2481       1    1766    1564.5773503.5773503.5773503        
CBUSH       2482       1    1772     128.5773503.5773503.5773503        
CBUSH       2483       1    1776     124.5773503.5773503.5773503        
CBUSH       2484       1    1781    1619.5773503.5773503.5773503        
$ ... 172 like lines cut
RBE2        2657    2674  123456    1684    1697    1708    1709    1949+       
+           1960    1972    1973    2213    2224    2237    2444    2455+       
+           2468
CBUSH       2658       5    2674    2675.5773503.5773503.5773503        
ENDDATA 336d1f01
