$EXECUTIVE CONTROL DECK
SOL 101
CEND
$CASE CONTROL DECK
TITLE = pyNastran Test
SUBCASE 1
    SUBTITLE = p.569 10.2.2
    LOAD = 123
    DISP(PLOT,PRINT)   = ALL
    FORCE(PLOT,PRINT) = ALL
    STRESS(PLOT,PRINT) = ALL
    STRAIN(PLOT,PRINT) = ALL
BEGIN BULK

$NODES
GRID,1,, 0., 8., 0.,,   456
GRID,2,,-5., 0., 2.,,123456
GRID,3,, 0., 0., 4.,,123456
GRID,4,, 3., 0., 0.,,123456
GRID,5,,-2., 0.,-4.,,123456
CONROD,1, 1,2, 99,0.0004
CONROD,2, 1,3, 99,0.0004
CONROD,3, 1,4, 99,0.0004
CONROD,4, 1,5, 99,0.0004
MAT1,99,70.E9,,0.3
FORCE,123,1,,1000.,0.,0.,-1.
ENDDATA
