$EXECUTIVE CONTROL DECK
SOL 101
CEND
$CASE CONTROL DECK
TITLE = pyNastran Test
SUBCASE 1
    SUBTITLE = p.658 11.2.1 (Curtis)
    LOAD = 123
    OLOAD = ALL
    SPCFORCE(PLOT,PRINT)  = ALL
    FORCE(PLOT,PRINT)  = ALL
    DISP(PLOT,PRINT)   = ALL
    STRESS(PLOT,PRINT) = ALL
    STRAIN(PLOT,PRINT) = ALL
BEGIN BULK
$
$ 1---A---2 ---> F=1000 lb   k = 3.0

$NODES
GRID,1,, 0. , 0. ,0.,,123456
GRID,2,, 0.3, 0. ,0.,,3456
GRID,3,, 0.3, 0.3,0.,,3456
GRID,4,, 0.0, 0.3,0.,,123456
GRID,5,, 0.6, 0., 0.,,
SPOINT,6

FORCE,123,2,,1000.,0.,-1.,0.

$CSHEAR, eid, pid, n1, n2, n3, n4
CSHEAR,    4,   1,  1,  2,  3,  4

$PSHEAR, pid, mid, t,     nsm,  f1,  f2
PSHEAR,    1, 100, 0.003, 0.0, 0.0, 0.0

$CROD, eid, pid, g1, g2
CROD,    1,  2,  1, 2
CROD,    2,  2,  2, 3
CROD,    3,  2,  3, 4

$CONROD, eid,g1, g2, pid,  A,   C,    J
CONROD,    5, 2,  5, 100, 1., 7.0, 11.0

$PROD, pid, mid, A,      J,   C,   nsm
PROD,   2,  100, 0.0005, 0.0, 1.0, 0.0



$MATERIALS
$MAT1,  mid,    E,  G,     nu
MAT1,   100, 70.+9, 28e9,  .3

ENDDATA
