SOL 101
CEND
SUBCASE 1
  LOAD = 1
  $SPC = 1
  DISP = ALL
SUBCASE 2
  LOAD = 2
  $SPC = 1
  DISP = ALL
SUBCASE 3
  LOAD = 1003
  $SPC = 1
  DISP = ALL
SUBCASE 4
  LOAD = 1004
  $SPC = 1
  DISP = ALL
BEGIN BULK

LOAD, 1, 1., 1., 1001
LOAD, 2, 1., 1., 1001, 1., 1002
PLOAD4, 1001, 500, 3.
FORCE,  1002, 15, 0, 1., 0., 0., 1.
PLOAD,  1003, 9., 1, 2, 7, 6
PLOAD,  1004, 9., 1, 2, 6
GRID, 1,  0, 0., 0., 0.,,123456
GRID, 2,  0, 1., 0., 0.
GRID, 3,  0, 2., 0., 0.
GRID, 4,  0, 3., 0., 0.
GRID, 5,  0, 4., 0., 0.
GRID, 6,  0, 0., 1., 0.,,123456
GRID, 7,  0, 1., 1., 0.
GRID, 8,  0, 2., 1., 0.
GRID, 9,  0, 3., 1., 0.
GRID, 10, 0, 4., 1., 0.
GRID, 11, 0, 0., 2., 0.,,123456
GRID, 12, 0, 1., 2., 0.
GRID, 13, 0, 2., 2., 0.
GRID, 14, 0, 3., 2., 0.
GRID, 15, 0, 4., 2., 0.

CQUAD4, 100, 1000, 1, 2, 7, 6
CQUAD4, 200, 1000, 2, 3, 8, 7
CQUAD4, 300, 1000, 3, 4, 9, 8
CQUAD4, 400, 1000, 4, 5, 10, 9
CQUAD4, 500, 1000, 6, 7, 12, 11
CQUAD4, 600, 1000, 7, 8, 13, 12
CQUAD4, 700, 1000, 8, 9, 14, 13
CQUAD4, 800, 1000, 9, 10, 15, 14

PSHELL, 1000, 10000, 0.1, 10000
MAT1,   10000, 1e7, , 0.3
ENDDATA
