SOL 101
CEND
BEGIN BULK
$ CAERO7       101    WING               7       5       0
$               0.      0.      0. 2.07055
$          1.48044  5.5251      0. 2.07055
PSHELL,101,1,0.1
$ CAERO7       101    WING               7       5       0
$               0.      0.      0. 2.07055
$          1.48044  5.5251      0. 2.07055
$$
$$ XYZ_LE is taken at the center of the leading edge; (p1+p4)/2
$$
$$  CAEROID      EID       XLE       YLE       ZLE     CHORD      SPAN   XLE+C/4   XLE+C/2
$$      101      101    0.1057    0.3947    0.0000    0.4141    0.7893    0.2093    0.3128
$$      101      102    0.5199    0.3947    0.0000    0.4141    0.7893    0.6234    0.7269
$$      101      103    0.9340    0.3947    0.0000    0.4141    0.7893    1.0375    1.1410
$$      101      104    1.3481    0.3947    0.0000    0.4141    0.7893    1.4516    1.5551
$$      101      105    1.7622    0.3947    0.0000    0.4141    0.7893    1.8657    1.9692
$$      101      106    0.3172    1.1840    0.0000    0.4141    0.7893    0.4208    0.5243
$$      101      107    0.7313    1.1840    0.0000    0.4141    0.7893    0.8349    0.9384
$$      101      108    1.1455    1.1840    0.0000    0.4141    0.7893    1.2490    1.3525
$$      101      109    1.5596    1.1840    0.0000    0.4141    0.7893    1.6631    1.7666
$$      101      110    1.9737    1.1840    0.0000    0.4141    0.7893    2.0772    2.1807
$$      101      111    0.5287    1.9733    0.0000    0.4141    0.7893    0.6323    0.7358
$$      101      112    0.9428    1.9733    0.0000    0.4141    0.7893    1.0464    1.1499
$$      101      113    1.3569    1.9733    0.0000    0.4141    0.7893    1.4605    1.5640
$$      101      114    1.7711    1.9733    0.0000    0.4141    0.7893    1.8746    1.9781
$$      101      115    2.1852    1.9733    0.0000    0.4141    0.7893    2.2887    2.3922
$$      101      116    0.7402    2.7626    0.0000    0.4141    0.7893    0.8437    0.9473
$$      101      117    1.1543    2.7626    0.0000    0.4141    0.7893    1.2579    1.3614
$$      101      118    1.5684    2.7626    0.0000    0.4141    0.7893    1.6720    1.7755
$$      101      119    1.9825    2.7626    0.0000    0.4141    0.7893    2.0861    2.1896
$$      101      120    2.3967    2.7626    0.0000    0.4141    0.7893    2.5002    2.6037
$ ... 15 like lines cut
GRID           1              0.      0.      0.
GRID           2          .41411      0.      0.
GRID           3          .82822      0.      0.
GRID           4         1.24233      0.      0.
GRID           5         1.65644      0.      0.
GRID           6         2.07055      0.      0.
GRID           7        .2114914   .7893      0.
GRID           8        .6256014   .7893      0.
GRID           9        1.039711   .7893      0.
GRID          10        1.453821   .7893      0.
GRID          11        1.867931   .7893      0.
GRID          12        2.282041   .7893      0.
GRID          13        .4229829  1.5786      0.
GRID          14        .8370929  1.5786      0.
GRID          15        1.251203  1.5786      0.
GRID          16        1.665313  1.5786      0.
GRID          17        2.079423  1.5786      0.
GRID          18        2.493533  1.5786      0.
GRID          19        .6344743  2.3679      0.
GRID          20        1.048584  2.3679      0.
$ ... 28 like lines cut
CQUAD4       101     101       1       7       8       2
CQUAD4       102     101       2       8       9       3
CQUAD4       103     101       3       9      10       4
CQUAD4       104     101       4      10      11       5
CQUAD4       105     101       5      11      12       6
CQUAD4       106     101       7      13      14       8
CQUAD4       107     101       8      14      15       9
CQUAD4       108     101       9      15      16      10
CQUAD4       109     101      10      16      17      11
CQUAD4       110     101      11      17      18      12
CQUAD4       111     101      13      19      20      14
CQUAD4       112     101      14      20      21      15
CQUAD4       113     101      15      21      22      16
CQUAD4       114     101      16      22      23      17
CQUAD4       115     101      17      23      24      18
CQUAD4       116     101      19      25      26      20
CQUAD4       117     101      20      26      27      21
CQUAD4       118     101      21      27      28      22
CQUAD4       119     101      22      28      29      23
CQUAD4       120     101      23      29      30      24
$ ... 15 like lines cut
MAT1,1,350000000000.0,,0.3,2700.0
ENDDATA
