SOL 101
CEND
TITLE = MSC.Nastran job created on 12-Mar-13 at 12:52:23
ECHO = NONE
SUBCASE 1
   SUBTITLE=Default
   SPC = 2
   LOAD = 2
   DISPLACEMENT(SORT1,PLOT,REAL)=ALL
   SPCFORCES(SORT1,PLOT,REAL)=ALL
   STRESS(SORT1,REAL,PLOT,VONMISES,BILIN)=ALL
   STRAIN(SORT1,REAL,PLOT,VONMISES,BILIN)=ALL
BEGIN BULK
PARAM    POST    -1
PARAM   PRTMAXIM NO
$ Femap Property  : Plate
PSHELL   1       1      .3       1               1
$ Femap Property  : Composite
PCOMP          2
               2.1999993      0.     YES       2.1999993     45.     YES
               2.1999993    -45.     YES       2.1999994     90.     YES
               2    .037     45.     YES       2    .037      0.     YES
$ Femap Material  : Iso
$ 	mid	E	G	nu	rho
MAT1     1      7.+7            .3	0.01
$ Femap Material  : Ortho
MAT8           2  1.25+79750000.     .28  1.11+7                    .024
$
CQUAD4   1       2       1       2       8       7
CQUAD4   2       2       2       3       9       8
CQUAD4   3       2       3       4       10      9
CQUAD4   4       2       4       5       11      10
CQUAD4   5       1       5       6       12      11
CQUAD4   6       2       7       8       14      13
CQUAD4   7       2       8       9       15      14
CQUAD4   8       2       9       10      16      15
CQUAD4   9       2       10      11      17      16
CQUAD4   10      1       11      12      18      17
CQUAD4   11      2       13      14      20      19
CQUAD4   12      2       14      15      21      20
CQUAD4   13      2       15      16      22      21
CQUAD4   14      2       16      17      23      22
CQUAD4   15      1       17      18      24      23
CQUAD4   16      2       19      20      26      25
CQUAD4   17      2       20      21      27      26
CQUAD4   18      2       21      22      28      27
CQUAD4   19      2       22      23      29      28
CQUAD4   20      1       23      24      30      29
$ ... 4 like lines cut
$CQUAD4   25      1       29      30      36      35
CTRIA3   26      1       29      30      36
CTRIA3   27      1       29      36      35
$ Nodes of the Entire Model
GRID     1               0.      0.      0.
GRID     2              2.       0.      0.
GRID     3              4.       0.      0.
GRID     4              6.       0.      0.
GRID     5              8.       0.      0.
GRID     6              10.      0.      0.
GRID     7               0.     2.       0.
GRID     8              2.      2.       0.
GRID     9              4.      2.       0.
GRID     10             6.      2.       0.
GRID     11             8.      2.       0.
GRID     12             10.     2.       0.
GRID     13              0.     4.       0.
GRID     14             2.      4.       0.
GRID     15             4.      4.       0.
GRID     16             6.      4.       0.
GRID     17             8.      4.       0.
GRID     18             10.     4.       0.
GRID     19              0.     6.       0.
GRID     20             2.      6.       0.
$ ... 16 like lines cut
$ Loads for Load Case : Default
SPCADD   2       1
LOAD     2      1.      1.       1
LOAD     3      1.      1.       10
LOAD     4      1.      5.       10
LOAD     5      7.      1.       10
LOAD     6      7.      5.       10
LOAD     7      1.      1.       1      1.       11
$ Displacement Constraints of Load Set : disp
SPC1     1       123456  1       7       13      19      25      31
$ Nodal Forces of Load Set : force
FORCE    1       6       0      100.    0.       0.      1.
FORCE    1       12      0      100.    0.       0.      1.
FORCE    1       18      0      100.    0.       0.      1.
FORCE    1       24      0      100.    0.       0.      1.
FORCE    1       30      0      100.    0.       0.      1.
FORCE    1       36      0      100.    0.       0.      1.
PLOAD4,10,1,3.,,,,THRU,24
PLOAD4,10,26,3.,,,,THRU,27
PLOAD4,11,1,3.
$ Referenced Coordinate Frames
ENDDATA ea1281a2
