$ Modell zum Testen der Ausgabe im Materialwinkel
$ 26.06.95
$ ===============================================
$
$ ASSIGN OUTPUT2 = 'winkel.op2', UNIT = 12
$
SOL 101
TIME 60
$ 
$ COMPILE SEDRCVR,SOUIN=MSCSOU NOLIST NOREF $                                     
$ INCLUDE '/e5/ruster/fem/NASTRAN68/sort2_alter'
$ INCLUDE '/e5/ruster/fem/NASTRAN68/noelstress_alter'
$
CEND
$
TITLE = Modell zum Testen der Ausgabe im Materialwinkel
SUBTITLE = DIMENSIONS: N, MM
$ MAXLINES = 200000
ECHO = SORT
$ ECHO = SORT(PARAM)
$ ECHO = UNSORT
$ ECHO = BOTH
$ ECHO = NONE
$ ECHO = PUNCH
$ ECHO = SORT,PUNCH
$ ECHO = SORT(FORCE)
LINE = 99999
$
$ SET 1 = 10002, 10102, 10202, 10302
$
SPC = 1
$
DISPLACEMENT(PRINT,PUNCH,PLOT,CID) = ALL
$ OLOAD = ALL
$ SPCFORCE = ALL
EQUILIBRIUM = YES
$ ELFORCE = ALL
$ ELFORCE(BILIN) = ALL
$
$ STRESS = ALL
$ STRESS(BILIN) = ALL
$
$ STRAIN = ALL
$ STRAIN(FIBER) = ALL
$ STRAIN(FIBER,BILIN) = ALL
$
$ STRAIN(FIBER,PUNCH) = ALL
$ STRAIN(SORT2,PUNCH,FIBER) = ALL
$ GPFORCE = 1
$
SUBCASE 1
SUBTITLE = ZUG_1
LOAD = 10
$
BEGIN BULK
$------1-------2-------3-------4-------5-------6-------7-------8-------9------10
PARAM   AUTOSPC YES
PARAM   K6ROT   1.
$ PARAM   MAXRATIO1.E7
$ PARAM   EPZERO  1.E-6
$ PARAM   BAILOUT -1
$ PARAM   PRGPST  NO
$                                                                              
$   Ideas-Auswertung 
$ PARAM   POST    -2
$
$   PATRAN-Auswertung
PARAM   POST    -1
PARAM   PATVER  3.
PARAM   OUGCORD BASIC
$
$   NUR GEOMETRIE VON DBALL HOLEN UND AUF IO2 SCHREIBEN                          
$   (DAMIT WIRD EIN LOESEN DES GLEICHUNGSSYSTEMS VERMIEDEN)                   
$ PARAM   CHECKOUT YES                                                          
$ PARAM   OUNIT1   12                                                           
$
$   DRUCKEN UND SORTIEREN DER SPANNUNGEN > BIGER (PRO ELEMENTTYP)               
$   (ERFORDERLICH BIGER = ZAHL, NUMOUT = -1)                                    
$ PARAM   BIGER   50.                                                           
$ PARAM   NUMOUT  -1                                                            
$                                                                               
$   DRUCKEN UND SORTIEREN DER N ABSOLUT GROESSTEN SPANNUNGEN PRO                
$   ELEMENTTYP (ERFORDERLICH S1 = 1 UND NUMOUT = N)                             
$ PARAM   NUMOUT  8                                                             
$ PARAM   S1      1                                                             
$ PARAM   S1G     1                                                             
$                                                                               
$   DRUCKEN DER SPANNUNGEN UND/ODER DEHNUNGEN IM MATERIALSYSTEM                 
$   ERFORDERLICH CURV UND S1M UND/ODER S1AM 
$   ( CURVPLOT nur bei PUNCH/SORT2   //   OG nur bei Plots )         
$ PARAM   S1M     1                                                             
$ PARAM   S1AM    1                                                               
$ PARAM   CURV    1                                                               
$ PARAM   CURVPLOT0                                                               
$ PARAM   OG      -1                                                           
$                                                                               
$   DRUCKEN DER SPANNUNGEN UND/ODER DEHNUNGEN IM MATERIALSYSTEM                 
$ PARAM   OMID    YES                                                             
$
$   BEI EINER NACHBERECHNUNG MIT NEUEN LASTFAELLEN PARAM  SERST SEMI             
$   IM CASE CONTROL NUR DIE  N E U E N  LASTFAELLE AUFFUEHREN ||                       
$ PARAM   SERST   SEMI                                                            
$                                                                               
$ PARAM   MPCF    YES                                                           
$ PARAM   NOMPCPRT1                                                             
$ PARAM   NOELOP  1                                                             
$ PARAM   NOGPF   -1                                                            
$ PARAM   NOELOF  1                                                             
$ PARAM   SPCGEN  1                                                             
$ PARAM   GRDPNT  90100                                                         
$ PARAM   COORID  2                                                             
$ PARAM   EST     1                                                             
$ PARAM   BGPDT   BGPDT                                                         
$ PARAM   EQEXIN  EQEXIN                                                        
$ PARAM   CSTM    CSTM                                                          
$ PARAM   PRTPG   1                                                             
$ PARAM   MPCX    0                                                             
$
$------1-------2-------3-------4-------5-------6-------7-------8-------9------10
$
$NODES
GRID     11              0.      0.      0.
GRID     12              10.     0.      0.
GRID     13              20.     0.      0.
GRID     14              0.     -13.3333 0.
GRID     15              10.    -9.99999 0.
GRID     16              20.    -6.66666 0.
GRID     17              0.     -26.6665 0.
GRID     18              10.    -19.9999 0.
GRID     19              20.    -13.3333 0.
GRID     101             0.     -40.     0.
GRID     102             9.99999-30.     0.
GRID     103             20.    -20.     0.
GRID     104             30.    -30.     0.
GRID     105             19.9999-40.     0.
GRID     106             10.    -50.     0.
GRID     107             40.    -40.     0.
GRID     108             29.9999-50.     0.
GRID     109             20.    -60.     0.
GRID     110             50.    -50.     0.
GRID     111             40.    -60.     0.
GRID     112             30.    -70.     0.
$
$ELEMENTS
CQUAD4   11      1       11      14      15      12      1000
CQUAD4   12      1       12      15      16      13      1000
CQUAD4   13      1       14      17      18      15      1000
CQUAD4   14      1       15      18      19      16      1000
CQUAD4   15      1       17      101     102     18      1000
CQUAD4   16      1       18      102     103     19      1000
$
CQUAD4   101     2       103     102     105     104     2000
CQUAD4   102     2       102     101     106     105     2000
CQUAD4   103     2       104     105     108     107     2000
CQUAD4   104     2       105     106     109     108     2000
CQUAD4   105     2       107     108     111     110     2000
CQUAD4   106     2       108     109     112     111     2000
$PROPERTIES
PSHELL   1       10      4.      10
PSHELL   2       20      2.      20
$
$MATERIALS
MAT1     10      70000.          0.3                                    +M100
+M100                            1000
MAT1     20      70000.          0.3                                    +M200
+M200                            2000
$
$------1-------2-------3-------4-------5-------6-------7-------8-------9------10
$
$LOADS
FORCE    10      112     0       5000.   0.     -1.      0.
$SPCs
SPC1     1       123456  11      12      13
$
CORD2R   1000            0.      0.      0.      0.      0.      1.     +      A
+      A 0.     -1.      0.
CORD2R   2000            0.     -40.     0.      0.     -40.     40.    +      B
+      B 28.2842-68.2842 0.
$
ENDDATA
