SOL 400
CEND
ECHO=NONE
SUBCASE       1
  LABEL= STEP1
  SPC =        3
  LOAD =        4
  NLSTEP =        5
  ANALYSIS = NLSTATICS
  DISPLACEMENT(SORT1,PLOT,REAL) = ALL
  SPCFORCES(SORT1,PLOT,REAL) = ALL
  STRAIN(SORT1,PLOT,REAL,VONMISES,STRCUR,BILIN) = ALL
  STRESS(SORT1,PLOT,REAL,VONMISES,BILIN) = ALL
BEGIN BULK
PARAM,LGDISP,1  
PARAM,POST,1       
PARAM,PRTMAXIM,YES 
$ Elements and Element Properties for region : psolid.2
PSOLID   2       1       0
$ Pset: "psolid.2" will be imported as: "psolid.2"
CHEXA    126     2       1       27      28      2       157     160
         159     158
CHEXA    127     2       2       28      29      3       158     159
         162     161
CHEXA    128     2       3       29      30      4       161     162
         164     163
CHEXA    129     2       4       30      31      5       163     164
         166     165
CHEXA    130     2       5       31      32      6       165     166
         168     167
CHEXA    131     2       6       32      33      7       167     168
         170     169
CHEXA    132     2       7       33      34      8       169     170
         172     171
CHEXA    133     2       8       34      35      9       171     172
         174     173
CHEXA    134     2       9       35      36      10      173     174
         176     175
CHEXA    135     2       10      36      37      11      175     176
         178     177
CHEXA    136     2       11      37      38      12      177     178
         180     179
CHEXA    137     2       12      38      39      13      179     180
         182     181
CHEXA    138     2       13      39      40      14      181     182
         184     183
CHEXA    139     2       14      40      41      15      183     184
         186     185
CHEXA    140     2       15      41      42      16      185     186
         188     187
CHEXA    141     2       16      42      43      17      187     188
         190     189
CHEXA    142     2       17      43      44      18      189     190
         192     191
CHEXA    143     2       18      44      45      19      191     192
         194     193
CHEXA    144     2       19      45      46      20      193     194
         196     195
CHEXA    145     2       20      46      47      21      195     196
         198     197
$ ... 210 like lines cut
$ Referenced Material Records
$ Material Record : mat1.1
$ Description of Material :
MAT1*    1               210000.         80769.234       .3
*
$ Nodes of the Entire Model
GRID     1               0.      0.      0.
GRID*    2                              199.999984741211 0.
*        0.
GRID*    3                              399.999969482422 0.
*        0.
GRID     4               600.    0.      0.
GRID*    5                              799.999938964844 0.
*        0.
GRID*    6                               999.99993896484 0.
*        0.
GRID*    7                              1199.99987792969 0.
*        0.
GRID*    8                              1399.99987792969 0.
*        0.
GRID*    9                              1600.00012207031 0.
*        0.
GRID*    10                             1800.00012207031 0.
*        0.
GRID*    11                             1999.99987792969 0.
*        0.
GRID     12              2200.   0.      0.
GRID     13              2400.   0.      0.
GRID*    14                             2599.99975585938 0.
*        0.
GRID     15              2800.   0.      0.
GRID     16              3000.   0.      0.
GRID     17              3200.   0.      0.
GRID     18              3400.   0.      0.
GRID*    19                             3600.00048828125 0.
*        0.
GRID*    20                             3799.99951171875 0.
*        0.
GRID*    21                             4000.00024414063 0.
*        0.
GRID     22              4200.   0.      0.
GRID     23              4400.   0.      0.
GRID     24              4600.   0.      0.
GRID     25              4800.   0.      0.
GRID     26              5000.   0.      0.
GRID*    27                              0.             200.000015258789
*        0.
GRID*    28                             199.999984741211200.000015258789
*        0.
GRID*    29                             399.999969482422200.000015258789
*        0.
GRID*    30                              600.           200.000015258789
*        0.
GRID*    31                             799.999938964844200.000015258789
*        0.
GRID*    32                              999.99993896484200.000015258789
*        0.
GRID*    33                             1199.99987792969200.000015258789
*        0.
GRID*    34                             1399.99987792969200.000015258789
*        0.
GRID*    35                             1600.00012207031200.000015258789
*        0.
GRID*    36                             1800.00012207031200.000015258789
*        0.
GRID*    37                             1999.99987792969200.000015258789
*        0.
GRID*    38                              2200.          200.000015258789
*        0.
GRID*    39                              2400.          200.000015258789
*        0.
GRID*    40                             2599.99975585938200.000015258789
*        0.
GRID*    41                              2800.          200.000015258789
*        0.
GRID*    42                              3000.          200.000015258789
*        0.
GRID*    43                              3200.          200.000015258789
*        0.
GRID*    44                              3400.          200.000015258789
*        0.
GRID*    45                             3600.00048828125200.000015258789
*        0.
GRID*    46                             3799.99951171875200.000015258789
*        0.
$ ... 116 like lines cut
GRID     105             0.      800.    0.
GRID*    106                            199.999984741211 800.
*        0.
GRID*    107                            399.999969482422 800.
*        0.
GRID     108             600.    800.    0.
GRID*    109                            799.999938964844 800.
*        0.
GRID*    110                             999.99993896484 800.
*        0.
GRID*    111                            1199.99987792969 800.
*        0.
GRID*    112                            1399.99987792969 800.
*        0.
GRID*    113                            1600.00012207031 800.
*        0.
GRID*    114                            1800.00012207031 800.
*        0.
GRID*    115                            1999.99987792969 800.
*        0.
GRID     116             2200.   800.    0.
GRID     117             2400.   800.    0.
GRID*    118                            2599.99975585938 800.
*        0.
GRID     119             2800.   800.    0.
GRID     120             3000.   800.    0.
GRID     121             3200.   800.    0.
GRID     122             3400.   800.    0.
GRID*    123                            3600.00048828125 800.
*        0.
GRID*    124                            3799.99951171875 800.
*        0.
GRID*    125                            4000.00024414063 800.
*        0.
GRID     126             4200.   800.    0.
GRID     127             4400.   800.    0.
GRID     128             4600.   800.    0.
GRID     129             4800.   800.    0.
GRID     130             5000.   800.    0.
GRID     131             0.      1000.   0.
GRID*    132                            199.999984741211 1000.
*        0.
GRID*    133                            399.999969482422 1000.
*        0.
GRID     134             600.    1000.   0.
GRID*    135                            799.999938964844 1000.
*        0.
GRID*    136                             999.99993896484 1000.
*        0.
GRID*    137                            1199.99987792969 1000.
*        0.
GRID*    138                            1399.99987792969 1000.
*        0.
GRID*    139                            1600.00012207031 1000.
*        0.
GRID*    140                            1800.00012207031 1000.
*        0.
GRID*    141                            1999.99987792969 1000.
*        0.
GRID     142             2200.   1000.   0.
GRID     143             2400.   1000.   0.
GRID*    144                            2599.99975585938 1000.
*        0.
GRID     145             2800.   1000.   0.
GRID     146             3000.   1000.   0.
GRID     147             3200.   1000.   0.
GRID     148             3400.   1000.   0.
GRID*    149                            3600.00048828125 1000.
*        0.
GRID*    150                            3799.99951171875 1000.
*        0.
GRID*    151                            4000.00024414063 1000.
*        0.
GRID     152             4200.   1000.   0.
GRID     153             4400.   1000.   0.
GRID     154             4600.   1000.   0.
GRID     155             4800.   1000.   0.
GRID     156             5000.   1000.   0.
GRID     157             0.      0.      -10.
GRID*    158                            199.999984741211 0.
*        -10.
GRID*    159                            199.999984741211200.000015258789
*        -10.
GRID*    160                             0.             200.000015258789
*        -10.
GRID*    161                            399.999969482422 0.
*        -10.
GRID*    162                            399.999969482422200.000015258789
*        -10.
GRID     163             600.    0.      -10.
GRID*    164                             600.           200.000015258789
*        -10.
GRID*    165                            799.999938964844 0.
*        -10.
GRID*    166                            799.999938964844200.000015258789
*        -10.
GRID*    167                             999.99993896484 0.
*        -10.
GRID*    168                             999.99993896484200.000015258789
*        -10.
GRID*    169                            1199.99987792969 0.
*        -10.
GRID*    170                            1199.99987792969200.000015258789
*        -10.
GRID*    171                            1399.99987792969 0.
*        -10.
GRID*    172                            1399.99987792969200.000015258789
*        -10.
GRID*    173                            1600.00012207031 0.
*        -10.
GRID*    174                            1600.00012207031200.000015258789
*        -10.
GRID*    175                            1800.00012207031 0.
*        -10.
GRID*    176                            1800.00012207031200.000015258789
*        -10.
GRID*    177                            1999.99987792969 0.
*        -10.
GRID*    178                            1999.99987792969200.000015258789
*        -10.
GRID     179             2200.   0.      -10.
GRID*    180                             2200.          200.000015258789
*        -10.
GRID     181             2400.   0.      -10.
GRID*    182                             2400.          200.000015258789
*        -10.
GRID*    183                            2599.99975585938 0.
*        -10.
GRID*    184                            2599.99975585938200.000015258789
*        -10.
GRID     185             2800.   0.      -10.
GRID*    186                             2800.          200.000015258789
*        -10.
GRID     187             3000.   0.      -10.
GRID*    188                             3000.          200.000015258789
*        -10.
GRID     189             3200.   0.      -10.
GRID*    190                             3200.          200.000015258789
*        -10.
GRID     191             3400.   0.      -10.
GRID*    192                             3400.          200.000015258789
*        -10.
GRID*    193                            3600.00048828125 0.
*        -10.
GRID*    194                            3600.00048828125200.000015258789
*        -10.
GRID*    195                            3799.99951171875 0.
*        -10.
GRID*    196                            3799.99951171875200.000015258789
*        -10.
GRID*    197                            4000.00024414063 0.
*        -10.
GRID*    198                            4000.00024414063200.000015258789
*        -10.
GRID     199             4200.   0.      -10.
GRID*    200                             4200.          200.000015258789
*        -10.
GRID     201             4400.   0.      -10.
GRID*    202                             4400.          200.000015258789
*        -10.
GRID     203             4600.   0.      -10.
GRID*    204                             4600.          200.000015258789
*        -10.
GRID     205             4800.   0.      -10.
GRID*    206                             4800.          200.000015258789
*        -10.
GRID     207             5000.   0.      -10.
GRID*    208                             5000.          200.000015258789
*        -10.
GRID*    209                            199.999984741211400.000030517578
*        -10.
GRID*    210                             0.             400.000030517578
*        -10.
GRID*    211                            399.999969482422400.000030517578
*        -10.
GRID*    212                             600.           400.000030517578
*        -10.
GRID*    213                            799.999938964844400.000030517578
*        -10.
GRID*    214                             999.99993896484400.000030517578
*        -10.
GRID*    215                            1199.99987792969400.000030517578
*        -10.
GRID*    216                            1399.99987792969400.000030517578
*        -10.
GRID*    217                            1600.00012207031400.000030517578
*        -10.
GRID*    218                            1800.00012207031400.000030517578
*        -10.
GRID*    219                            1999.99987792969400.000030517578
*        -10.
GRID*    220                             2200.          400.000030517578
*        -10.
GRID*    221                             2400.          400.000030517578
*        -10.
GRID*    222                            2599.99975585938400.000030517578
*        -10.
GRID*    223                             2800.          400.000030517578
*        -10.
GRID*    224                             3000.          400.000030517578
*        -10.
GRID*    225                             3200.          400.000030517578
*        -10.
GRID*    226                             3400.          400.000030517578
*        -10.
GRID*    227                            3600.00048828125400.000030517578
*        -10.
$ ... 68 like lines cut
GRID     262             0.      800.    -10.
GRID*    263                            399.999969482422 800.
*        -10.
GRID     264             600.    800.    -10.
GRID*    265                            799.999938964844 800.
*        -10.
GRID*    266                             999.99993896484 800.
*        -10.
GRID*    267                            1199.99987792969 800.
*        -10.
GRID*    268                            1399.99987792969 800.
*        -10.
GRID*    269                            1600.00012207031 800.
*        -10.
GRID*    270                            1800.00012207031 800.
*        -10.
GRID*    271                            1999.99987792969 800.
*        -10.
GRID     272             2200.   800.    -10.
GRID     273             2400.   800.    -10.
GRID*    274                            2599.99975585938 800.
*        -10.
GRID     275             2800.   800.    -10.
GRID     276             3000.   800.    -10.
GRID     277             3200.   800.    -10.
GRID     278             3400.   800.    -10.
GRID*    279                            3600.00048828125 800.
*        -10.
GRID*    280                            3799.99951171875 800.
*        -10.
GRID*    281                            4000.00024414063 800.
*        -10.
GRID     282             4200.   800.    -10.
GRID     283             4400.   800.    -10.
GRID     284             4600.   800.    -10.
GRID     285             4800.   800.    -10.
GRID     286             5000.   800.    -10.
GRID*    287                            199.999984741211 1000.
*        -10.
GRID     288             0.      1000.   -10.
GRID*    289                            399.999969482422 1000.
*        -10.
GRID     290             600.    1000.   -10.
GRID*    291                            799.999938964844 1000.
*        -10.
GRID*    292                             999.99993896484 1000.
*        -10.
GRID*    293                            1199.99987792969 1000.
*        -10.
GRID*    294                            1399.99987792969 1000.
*        -10.
GRID*    295                            1600.00012207031 1000.
*        -10.
GRID*    296                            1800.00012207031 1000.
*        -10.
GRID*    297                            1999.99987792969 1000.
*        -10.
GRID     298             2200.   1000.   -10.
GRID     299             2400.   1000.   -10.
GRID*    300                            2599.99975585938 1000.
*        -10.
GRID     301             2800.   1000.   -10.
GRID     302             3000.   1000.   -10.
GRID     303             3200.   1000.   -10.
GRID     304             3400.   1000.   -10.
GRID*    305                            3600.00048828125 1000.
*        -10.
GRID*    306                            3799.99951171875 1000.
*        -10.
GRID*    307                            4000.00024414063 1000.
*        -10.
GRID     308             4200.   1000.   -10.
GRID     309             4400.   1000.   -10.
GRID     310             4600.   1000.   -10.
GRID     311             4800.   1000.   -10.
GRID     312             5000.   1000.   -10.
$ Loads for Load Case : Default
SPCADD   3       1
LOAD     4       1.      1.      2
$ Displacement Constraints of Load Set : Empotramiento
SPC1     1       123456  1       27      53      79      105     131
         157     160     210     236     262     288
$ Nodal Forces of Load Set : Loads
FORCE    2       26      0       35.     0.      0.      -1.
FORCE    2       52      0       35.     0.      0.      -1.
FORCE    2       78      0       35.     0.      0.      -1.
FORCE    2       104     0       35.     0.      0.      -1.
FORCE    2       130     0       35.     0.      0.      -1.
FORCE    2       156     0       35.     0.      0.      -1.
$ Referenced Coordinate Frames
NLSTEP         5                
+       GENERAL       25                        
+       FIXED         10      10
+       MECH          UP     0.1     0.1    
ENDDATA 