$ DEC/CMS REPLACEMENT HISTORY, Element A61X.DAT
$ *2     5-AUG-1991 14:59:48 J_BELTRAN "67 PLUS/G/ CHANGED DBCCONV,X TO XL"
$ *1    10-JUL-1991 15:43:05 EC004ABB "67 PLUS/G/ ACCESS TEST DECK /JGB"
$ DEC/CMS REPLACEMENT HISTORY, Element A61X.DAT
ID EDS, A101X $ JGB
$ID TEST,A101  $ EXAMPLE FOR EDS/ACCESS WITHOUT MESH OPTION
SOL 101
TIME 6
CEND
TITLE=SQUARE PLATE WITH CIRCULAR HOLE (NO MESH - SOL 101)       A101X
SUBTITLE=MEMBRANE PROPERTIES OF QUAD4 AND TRIA3 ELEMENTS
SPC=1
DISP(PLOT)=ALL
SPCFORCES(PLOT)=ALL
ELSTRESS(PLOT)=ALL
OLOAD(PLOT)=ALL
STRFIELD=ALL
$GPSTRESS=ALL
SUBCASE 1
LABEL=UNIFORM LOAD ALONG X=5.0.
LOAD=1
SUBCASE 2
LABEL=UNIFORM LOAD ALONG Y=5.0.
LOAD=2
SUBCOM 3
LABEL=UNIFORM LOAD ALONG X=5.0 AND Y=5.0.
SUBSEQ=1.0,1.0
OUTPUT(POST)
SET 9 = ALL
SURFACE 1 SET 9 NORMAL Z
SURFACE 7 SET 9 NORMAL Z OUTPUT SYSTEM ELEMENT
BEGIN BULK
PARAM   POST    0
$
$   SET DBCCONV PARAMETER TO GRASP FOR MSC/GRASP OUTPUT
$   OR TO X FOR MSC/XL OUTPUT
$
$PARAM   DBCCONV XL
PARAM   DBCDIAG 32
CORD2C  1                                                       1.      CORD1
+ORD1   1.
GRDSET                                                  3456
GRID    10000   1        1.      0.0     0.0    1       3456
GRID    10001   1        1.1     0.0     0.0    1       3456
GRID    10002   1        1.25    0.0     0.0    1       3456
GRID    10003   1        1.5     0.0     0.0    1       3456
GRID    10004   1        2.1     0.0     0.0    1       3456
GRID    10005   1        3.5     0.0     0.0    1       3456
GRID    10006   1        5.      0.0     0.0    1       3456
GRID    10100   1        1.      10.     0.0    1       3456
GRID    10101   1        1.1     10.     0.0    1       3456
GRID    10102   1        1.25    10.     0.0    1       3456
GRID    10103   1        1.5     10.     0.0    1       3456
GRID    10104   1        2.1     10.     0.0    1       3456
GRID    10105   1        3.5     10.     0.0    1       3456
GRID    10200   1        1.      20.     0.0    1       3456
GRID    10201   1        1.1     20.     0.0    1       3456
GRID    10202   1        1.25    20.     0.0    1       3456
GRID    10203   1        1.5     20.     0.0    1       3456
GRID    10204   1        2.1     20.     0.0    1       3456
GRID    10205   1        3.5     20.     0.0    1       3456
GRID    10300   1        1.      35.     0.0    1       3456
$ ... 30 like lines cut
CQUAD4  1       1       10000   10001   10101   10100
CQUAD4  2       1       10001   10002   10102   10101
CQUAD4  3       1       10002   10003   10103   10102
CQUAD4  4       1       10003   10004   10104   10103
CQUAD4  5       1       10004   10005   10105   10104
CQUAD4  6       1       10005   10006   10106   10105
CQUAD4  7       1       10100   10101   10201   10200
CQUAD4  8       1       10101   10102   10202   10201
CQUAD4  9       1       10102   10103   10203   10202
CQUAD4  10      1       10103   10104   10204   10203
CQUAD4  11      1       10104   10105   10205   10204
CQUAD4  12      1       10105   10106   10206   10205
CQUAD4  13      1       10200   10201   10301   10300
CQUAD4  14      1       10201   10202   10302   10301
CQUAD4  15      1       10202   10203   10303   10302
CQUAD4  16      1       10203   10204   10304   10303
CQUAD4  17      1       10204   10205   10305   10304
CQUAD4  18      1       10205   10206   10306   10305
CQUAD4  19      1       10300   10301   10401   10400
CQUAD4  20      1       10301   10302   10402   10401
$ ... 22 like lines cut
MAT1    1       30.+6           .3                                      MAT1
+AT1                            1
SPC1    1       2       10000   10001   10002   10003   10004   10005   +M00000
+M00000 10006
SPC1    1       2       10700   10701   10702   10703   10704   10705   +M00001
+M00001 10706
GRID    10106   0        5.      .881635 0.0            3456
GRID    10206   0        5.      1.81985 0.0            3456
GRID    10306   0        5.      3.50104 0.0            3456
GRID    10606   0        .881635 5.      0.0            3456
GRID    10506   0        1.81985 5.      0.0            3456
GRID    10406   0        3.50104 5.      0.0            3456
GRID    10806           5.      5.                      3456
CTRIA3  50      1       10306   10806   10406
PSHELL  1       1       .1
GRID    120             5.      2.5                     23456
GRID    121             2.5     5.                      13456
RBE3    51              120     1       .4408175123     10006   .9099256RBE31
+BE31   123     10106   1.309702123     10206   1.590075123     10306   RBE32
+BE32   .74948121235    10806
RBE3    52              121     2       .4408175123     10706   .9099256RBE33
+BE33   123     10606   1.309702123     10506   1.590075123     10406   RBE34
+BE34   .74948121234    10806
FORCE   1       120             5.+3    1.
FORCE   2       121             5.+3            1.
ENDDATA
