$pyNastran: version=msc
$pyNastran: punch=False
$pyNastran: encoding=utf-8
$EXECUTIVE CONTROL DECK
SOL 103
CEND
$CASE CONTROL DECK
DISPLACEMENT(PLOT,PRINT) = ALL
FORCE(PLOT,PRINT) = ALL
MPCFORCES(PLOT,PRINT) = ALL
SPCFORCES(PLOT,PRINT) = ALL
STRAIN(PLOT,PRINT) = ALL
STRESS(PLOT,PRINT) = ALL
SUBCASE 1
    LOAD = 2
    METHOD = 103
    SPC = 3
BEGIN BULK
$NODES
GRID           1              0.      0.      0.
GRID           2              1.      0.      0.
GRID           3              2.      0.      0.
GRID           4              3.      0.      0.
GRID           5              4.      0.      0.
GRID           6              5.      0.      0.
GRID           7              6.      0.      0.
GRID           8              7.      0.      0.
GRID           9              8.      0.      0.
GRID          10              9.      0.      0.
GRID          11             10.      0.      0.
GRID          12             11.      0.      0.
GRID          13             12.      0.      0.
GRID          14             13.      0.      0.
GRID          15             14.      0.      0.
GRID          16             15.      0.      0.
GRID          17             16.      0.      0.
GRID          18             17.      0.      0.
GRID          19             18.      0.      0.
GRID          20             19.      0.      0.
$ ... 81 like lines cut
CBAR           1      10       1       2      0.      1.      0.
CBAR           2      10       2       3      0.      1.      0.
CBAR           3      10       3       4      0.      1.      0.
CBAR           4      10       4       5      0.      1.      0.
CBAR           5      10       5       6      0.      1.      0.
CBAR           6      10       6       7      0.      1.      0.
CBAR           7      10       7       8      0.      1.      0.
CBAR           8      10       8       9      0.      1.      0.
CBAR           9      10       9      10      0.      1.      0.
CBAR          10      10      10      11      0.      1.      0.
CBAR          11      10      11      12      0.      1.      0.
CBAR          12      10      12      13      0.      1.      0.
CBAR          13      10      13      14      0.      1.      0.
CBAR          14      10      14      15      0.      1.      0.
CBAR          15      10      15      16      0.      1.      0.
CBAR          16      10      16      17      0.      1.      0.
CBAR          17      10      17      18      0.      1.      0.
CBAR          18      10      18      19      0.      1.      0.
CBAR          19      10      19      20      0.      1.      0.
CBAR          20      10      20      21      0.      1.      0.
$ ... 80 like lines cut
PBAR          10     100      1.    6.75    6.75    13.5
$MATERIALS
MAT1         100    3.+7              .3      .1
$DYNAMIC
EIGRL        103                      16
