$pyNastran: version=msc
$pyNastran: punch=False
$pyNastran: encoding=utf-8
$EXECUTIVE CONTROL DECK
SOL 101
CEND
$CASE CONTROL DECK
DISPLACEMENT(PLOT,PRINT) = ALL
ESE(PLOT,PRINT) = ALL
FORCE(PLOT,PRINT) = ALL
GPFORCE(PLOT,PRINT) = ALL
MPCFORCES(PLOT,PRINT) = ALL
OLOAD(PLOT,PRINT) = ALL
SPCFORCES(PLOT,PRINT) = ALL
STRAIN(PLOT,PRINT) = ALL
STRESS(PLOT,PRINT) = ALL
SUBCASE 1
    LOAD = 2
    SPC = 3
BEGIN BULK
$NODES
GRID           1              0.      0.      0.
GRID           2              1.      0.      2.
GRID           3              1.      0.      0.
GRID           4              0.      0.      2.
CQUAD4         5       5       1       2       3       4              0.
PCOMP          5
               3      .1      0.     YES
$MATERIALS
MAT1           3    1.+7              .3
$LOADS
FORCE          2       3              1.      0.      0.      1.
FORCE          2       4              1.      0.      0.      1.
$SPCs
SPC1           3  123456       1       2
