$pyNastran: version=msc
$pyNastran: punch=False
$pyNastran: encoding=utf-8
$EXECUTIVE CONTROL DECK
SOL 101
CEND
$CASE CONTROL DECK
DISPLACEMENT(PLOT,PRINT) = ALL
ESE(PLOT,PRINT) = ALL
FORCE(PLOT,PRINT) = ALL
GPFORCE(PLOT,PRINT) = ALL
MPCFORCES(PLOT,PRINT) = ALL
OLOAD(PLOT,PRINT) = ALL
SPCFORCES(PLOT,PRINT) = ALL
STRAIN(PLOT,PRINT) = ALL
STRESS(PLOT,PRINT) = ALL
SUBCASE 1
    LOAD = 2
    SPC = 3
BEGIN BULK
$NODES
GRID           1              0.      0.      0.
GRID           2              1.      0.      0.
CROD           1       2       1       2
PROD           2       3      1.      2.
$MATERIALS
MAT1           3    3.+7              .3      .1
$LOADS
FORCE          2       2              1.      1.      0.      0.
$SPCs
SPC1           3  123456       1
ASET1        456       2       2
ASET1        123       2
