$ NASTRAN input file created by the Patran 2010 64-Bit input file
$ translator on September 01, 2011 at 11:10:00.
$ Direct Text Input for Nastran System Cell Section
$ Linear Static Analysis, Non-database
SOL 101
CEND
TITLE = MSC.NASTRAN JOB CREATED ON 29-JUL-09 AT 16:31:42
ECHO = SORT
SUBCASE 1
$ Subcase name : Default
   SUBTITLE=Default
   SPC = 2
   LOAD = 10
   DISPLACEMENT(SORT1,REAL)=ALL
   SPCFORCES(SORT1,REAL)=ALL
   STRESS(SORT1,REAL,VONMISES,BILIN)=ALL
BEGIN BULK
PARAM    POST    0
$PARAM    WTMASS  .00259
PARAM    GRDPNT  0
PARAM   PRTMAXIM YES
$ Elements and Element Properties for region : prod.1
PROD     1       1       10.
PROD     2       1       10.
PROD     3       1       10.
PROD     4       1       10.
PROD     5       1       10.
PROD     6       1       10.
PROD     7       1       10.
PROD     8       1       10.
PROD     9       1       10.
PROD     10      1       10.
$ Pset: "prod.1" will be imported as: "prod.1"
CROD     1       1       1       2
CROD     2       2       2       3
CROD     3       3       3       4
CROD     4       4       4       5
CROD     5       5       5       6
CROD     6       6       2       5
CROD     7       7       1       5
CROD     8       8       6       2
CROD     9       9       2       4
CROD     10      10      5       3
$ Referenced Material Records
$ Material Record : mat1.1
$ Description of Material :
$2345678123456781234567812345678123456781234567812345678123456781234567812345678
MAT1     1      1.+7            .3      0.1                             +RMC1
+RMC1   25000.  25000.  25000.
$ Nodes of the Entire Model
GRID     1               0.      0.      0.
GRID     2              360.     0.      0.
GRID     3              720.     0.      0.
GRID     4              720.    360.     0.
GRID     5              360.    360.     0.
GRID     6               0.     360.     0.
$
$ Displacement Constraints of Load Set : restxyz
$2345678123456781234567812345678123456781234567812345678123456781234567812345678
SPCADD   2       11
SPC1     11      123456  1       6
$ Loads for Load Case : Default
LOAD     10     1.      1.       1      1.       4
$ Nodal Forces of Load Set : force.1
$2345678123456781234567812345678123456781234567812345678123456781234567812345678
FORCE    1       4       0      150000.  0.     1.       0.
FORCE    1       5       0      150000.  0.     1.       0.
$ Nodal Forces of Load Set : force2
FORCE    4       2       0      50000.   0.     -1.      0.
FORCE    4       3       0      50000.   0.     -1.      0.
$ Referenced Coordinate Frames
ENDDATA 06ab3c34
