$ NASTRAN input file created by the Patran 2010 64-Bit input file
$ translator on September 09, 2011 at 15:09:46.
$ Direct Text Input for Nastran System Cell Section
$ Linear Static Analysis, Database
SOL 101
CEND
TITLE = MSC.NASTRAN JOB CREATED ON 29-JUL-09 AT 16:31:42
ECHO = NONE
SUBCASE 1
$ Subcase name : Default
   SUBTITLE=Default
   SPC = 2
   LOAD = 2
   DISPLACEMENT(SORT1,REAL)=ALL
   SPCFORCES(SORT1,REAL)=ALL
   STRESS(SORT1,REAL,VONMISES,BILIN)=ALL
BEGIN BULK
PARAM    POST    0
PARAM    GRDPNT  0
PARAM   PRTMAXIM YES
$ Elements and Element Properties for region : prod.1
PROD     1       1      10.
PROD     2       1      10.
PROD     3       1      10.
PROD     4       1      10.
PROD     5       1      10.
PROD     6       1      10.
PROD     7       1      10.
PROD     8       1      10.
PROD     9       1      10.
PROD     10      1      10.
PROD     11      1      10.
PROD     12      1      10.
PROD     13      1      10.
PROD     14      1      10.
PROD     15      1      10.
PROD     16      1      10.
PROD     17      1      10.
PROD     18      1      10.
PROD     19      1      10.
PROD     20      1      10.
$ ... 5 like lines cut
$ Pset: "prod.1" will be imported as: "prod.1"
CROD     1       1       1       2
CROD     2       2       1       4
CROD     3       3       2       3
CROD     4       4       1       5
CROD     5       5       2       6
CROD     6       6       2       4
CROD     7       7       2       5
CROD     8       8       1       3
CROD     9       9       1       6
CROD     10      10      3       6
CROD     11      11      4       5
CROD     12      12      3       4
CROD     13      13      5       6
CROD     14      14      3       10
CROD     15      15      6       7
CROD     16      16      4       9
CROD     17      17      5       8
CROD     18      18      4       7
CROD     19      19      3       8
CROD     20      20      5       10
$ ... 5 like lines cut
$ Referenced Material Records
$ Material Record : mat1.1
$ Description of Material :
MAT1     1      1.+7    3.8462+6.3      .1                              +      A
+      A20000.  20000.  20000.
$ Nodes of the Entire Model
$2345678123456781234567812345678123456781234567812345678123456781234567812345678
GRID     1              -37.5   0.000   200.
GRID     2               37.5   0.000   200.
GRID     3              -37.5   37.5    100.
GRID     4              37.5    37.5    100.
GRID     5              37.5    -37.5   100.
GRID     6              -37.5   -37.5   100.
GRID     7              -100.   100.     0.
GRID     8              100.    100.     0.
GRID     9              100.    -100.    0.
GRID     10             -100.   -100.    0.
$ Loads for Load Case : Default
SPCADD   2       1
LOAD     2      1.      1.       10     1.       20     1.       4      +      B
+      B1.       5
$ Displacement Constraints of Load Set : displ_xyz
SPC1     1       123     7       8       9       10
$ Nodal Forces of Load Set : load1
$2345678123456781234567812345678123456781234567812345678123456781234567812345678
FORCE   10      3       0       5000.   1.      0.      0. 
FORCE   10      3       0       20000.  0.      1.      0. 
FORCE   10      3       0       -5000.  0.      0.      1. 
$ Nodal Forces of Load Set : load4
FORCE   20      2       0       -20000. 0.      1.0     0.      
FORCE   20      2       0       -5000.0 0.      0.      1.      
$ Referenced Coordinate Frames
ENDDATA 512e73ed
