$ NASTRAN input file created by the MSC MSC.Nastran input file
$ translator ( MSC.Patran 13.1.116 ) on November  30, 2009 at 13:30:13.
$ Direct Text Input for Nastran System Cell Section
$ Linear Static Analysis, Database
SOL 101
CEND
ECHO = NONE
SUBCASE 1
$ Subcase name : Untitled.SC4
   SUBTITLE=Untitled.SC4
   SPC = 2
   LOAD = 3
$   LOAD = 13
   DISPLACEMENT(SORT1,REAL)=ALL
   STRESS(SORT1,REAL,VONMISES,BILIN)=ALL
   SPCFORCES(SORT1,REAL)=ALL
$   OLOAD(SORT1,REAL)=ALL
   FORCE(SORT1,REAL,BILIN)=ALL
$  TEMPERATURE(LOAD)=9
BEGIN BULK
PARAM    POST    0 
PARAM    K6ROT  40.
$PARAM    WTMASS .00259
PARAM   GRDPNT   0
PARAM   PRTMAXIM YES
$ Elements and Element Properties for region : prod.11
$2345678123456781234567812345678123456781234567812345678123456781234567812345678
PROD     11      5      1.
$ Pset: "prod.11" will be imported as: "prod.11"
CROD     1       11      1       2
$ Elements and Element Properties for region : prod.12
PROD     12      5      1.
$ Pset: "prod.12" will be imported as: "prod.12"
CROD     2       12      1       3
$ Elements and Element Properties for region : prod.13
PROD     13      5      1.
$ Pset: "prod.13" will be imported as: "prod.13"
CROD     3       13      1       4
$ Referenced Material Records
$ Material Record : mat1.5
$ Description of Material :
$2345678123456781234567812345678123456781234567812345678123456781234567812345678
MAT1     5      3.+7            .3      .284    6.6E-6                  +RC1
+RC1    20000.  20000.  20000.
$ Nodes of the Entire Model
GRID     1               0.      0.      0.
GRID     2              -100.   100.     0.
GRID     3               0.     100.     0.
GRID     4              100.    100.     0.
$ Loads for Load Case : Untitled.SC4
SPCADD   2       11
$2345678123456781234567812345678123456781234567812345678123456781234567812345678
LOAD    3       1.      1.      24      1.      25 
$LOAD     13     1.      1.      13      1.      14      1.      24      +RC2
$+RC2     1.     25
$ Displacement Constraints of Load Set : spc.11.SC4
SPC1     11      3456    1
SPC1     11      123456  2
SPC1     11      123456  3
SPC1     11      123456  4
$
$TEMP     9       1       100.0
$TEMPD    9       0.0
$ Nodal Forces of Load Set : force.8
$2345678123456781234567812345678123456781234567812345678123456781234567812345678
$SPCD     13      2       1       0.1
$SPCD     14      2       2      -0.15
FORCE    24      1       0      50000.0  1.0     0.0      0.
FORCE    25      1       0      100000.0 0.0    -1.0     0.
$ Referenced Coordinate Frames
ENDDATA 13664a4e
