$ NASTRAN input file created by the Patran 2010 64-Bit input file
$ translator on September 12, 2011 at 08:15:21.
$ Direct Text Input for Nastran System Cell Section
$ Linear Static Analysis, Non-database
SOL 101
CEND
TITLE = MSC.NASTRAN JOB CREATED ON 29-JUL-09 AT 16:31:42
ECHO = NONE
SUBCASE 1
$ Subcase name : DEFAULT.SC1
   SUBTITLE=DEFAULT.SC1
   SPC = 2
   LOAD = 12
   DISPLACEMENT(SORT1,REAL)=ALL
   SPCFORCES(SORT1,REAL)=ALL
   STRESS(SORT1,REAL,VONMISES,BILIN)=ALL
BEGIN BULK
PARAM    POST    0
PARAM    GRDPNT  0
PARAM   PRTMAXIM YES
$ Elements and Element Properties for region : prod.2
PROD     1       2      1.
PROD     2       2      1.
PROD     3       2      1.
PROD     4       2      1.
PROD     5       2      1.
PROD     6       2      1.
PROD     7       2      1.
PROD     8       2      1.
PROD     9       2      1.
PROD     10      2      1.
PROD     11      2      1.
PROD     12      2      1.
PROD     13      2      1.
PROD     14      2      1.
PROD     15      2      1.
PROD     16      2      1.
PROD     17      2      1.
PROD     18      2      1.
PROD     19      2      1.
PROD     20      2      1.
$ ... 136 like lines cut
$ Pset: "prod.2" will be imported as: "prod.2"
CROD     1       1       1       5
CROD     2       2       1       4
CROD     3       3       1       3
CROD     4       4       1       2
CROD     5       5       1       7
CROD     6       6       1       6
CROD     7       7       4       5
CROD     8       8       3       4
CROD     9       9       2       3
CROD     10      10      2       7
CROD     11      11      6       7
CROD     12      12      5       6
CROD     13      13      5       15
CROD     14      14      5       14
CROD     15      15      4       14
CROD     16      16      4       13
CROD     17      17      4       12
CROD     18      18      3       12
CROD     19      19      3       11
CROD     20      20      3       10
$ ... 136 like lines cut
$ Elements and Element Properties for region : pshell.1
PSHELL   157     1      1.       1      1.              .833333
PSHELL   158     1      1.       1      1.              .833333
PSHELL   159     1      1.       1      1.              .833333
PSHELL   160     1      1.       1      1.              .833333
PSHELL   161     1      1.       1      1.              .833333
PSHELL   162     1      1.       1      1.              .833333
PSHELL   163     1      1.       1      1.              .833333
PSHELL   164     1      1.       1      1.              .833333
PSHELL   165     1      1.       1      1.              .833333
PSHELL   166     1      1.       1      1.              .833333
PSHELL   167     1      1.       1      1.              .833333
PSHELL   168     1      1.       1      1.              .833333
PSHELL   169     1      1.       1      1.              .833333
PSHELL   170     1      1.       1      1.              .833333
PSHELL   171     1      1.       1      1.              .833333
PSHELL   172     1      1.       1      1.              .833333
PSHELL   173     1      1.       1      1.              .833333
PSHELL   174     1      1.       1      1.              .833333
PSHELL   175     1      1.       1      1.              .833333
PSHELL   176     1      1.       1      1.              .833333
$ ... 77 like lines cut
$ Pset: "pshell.1" will be imported as: "pshell.1"
CTRIA3   157     157     1       2       3       0.      0.
CTRIA3   158     158     1       3       4       0.      0.
CTRIA3   159     159     1       4       5       0.      0.
CTRIA3   160     160     1       5       6       0.      0.
CTRIA3   161     161     1       6       7       0.      0.
CTRIA3   162     162     1       2       7       0.      0.
CTRIA3   163     163     2       3       10      0.      0.
CTRIA3   164     164     2       9       10      0.      0.
CTRIA3   165     165     2       8       9       0.      0.
CTRIA3   166     166     2       7       8       0.      0.
CTRIA3   167     167     7       8       19      0.      0.
CTRIA3   168     168     7       18      19      0.      0.
CTRIA3   169     169     6       7       18      0.      0.
CTRIA3   170     170     6       17      18      0.      0.
CTRIA3   171     171     6       16      17      0.      0.
CTRIA3   172     172     5       6       16      0.      0.
CTRIA3   173     173     5       15      16      0.      0.
CTRIA3   174     174     5       14      15      0.      0.
CTRIA3   175     175     4       5       14      0.      0.
CTRIA3   176     176     4       13      14      0.      0.
$ ... 76 like lines cut
$ Referenced Material Records
$ Material Record : mat1.1
$ Description of Material :
MAT1     1      3.+7    1.1539+7.3      .289                            +      A
+      A30000.  30000.  30000.
$ Material Record : mat1.2
$ Description of Material :
MAT1     2      1.+7    1.1539+7.3      .1                              +      B
+      B14000.  14000.  14000.
$ Nodes of the Entire Model
GRID     1               0.      0.     30.
GRID     2              15.     -25.980828.2291
GRID     3              30.      0.     28.2292
GRID     4              15.     25.9808 28.2291
GRID     5              -15.    25.9808 28.2291
GRID     6              -30.     0.     28.2292
GRID     7              -15.    -25.980828.2291
GRID     8               0.     -51.816 24.68
GRID     9              30.     -51.816 22.8711
GRID     10             45.     -25.980824.6498
GRID     11             60.      0.     22.8407
GRID     12             45.     25.9808 24.6498
GRID     13             30.     51.816  22.8711
GRID     14              0.     51.816  24.68
GRID     15             -30.    51.816  22.8711
GRID     16             -45.    25.9808 24.6498
GRID     17             -60.     0.     22.8407
GRID     18             -45.    -25.980824.6498
GRID     19             -30.    -51.816 22.8711
GRID     20             -15.    -77.942417.3324
$ ... 41 like lines cut
$ Loads for Load Case : DEFAULT.SC1
SPCADD   2       1
LOAD     12     1.      1.       10
$ Displacement Constraints of Load Set : spc1.1
SPC1     1       123     38      THRU    61
$ Nodal Forces of Load Set : force.10
FORCE    10      1       0      25000.   0.      0.     1.
FORCE    10      2       0      25000.   0.      0.     1.
FORCE    10      3       0      25000.   0.      0.     1.
FORCE    10      4       0      25000.   0.      0.     1.
FORCE    10      5       0      25000.   0.      0.     1.
FORCE    10      6       0      25000.   0.      0.     1.
FORCE    10      7       0      25000.   0.      0.     1.
FORCE    10      8       0      25000.   0.      0.     1.
FORCE    10      9       0      25000.   0.      0.     1.
FORCE    10      10      0      25000.   0.      0.     1.
FORCE    10      11      0      25000.   0.      0.     1.
FORCE    10      12      0      25000.   0.      0.     1.
FORCE    10      13      0      25000.   0.      0.     1.
FORCE    10      14      0      25000.   0.      0.     1.
FORCE    10      15      0      25000.   0.      0.     1.
FORCE    10      16      0      25000.   0.      0.     1.
FORCE    10      17      0      25000.   0.      0.     1.
FORCE    10      18      0      25000.   0.      0.     1.
FORCE    10      19      0      25000.   0.      0.     1.
FORCE    10      20      0      25000.   0.      0.     1.
$ ... 17 like lines cut
$ Referenced Coordinate Frames
ENDDATA 378f91c0
