$ NASTRAN input file created by the Patran 2010 64-Bit input file
$ translator on September 12, 2011 at 08:15:21.
$ Direct Text Input for Nastran System Cell Section
$ Linear Static Analysis, Non-database
SOL 101
CEND
TITLE = MSC.NASTRAN JOB CREATED ON 29-JUL-09 AT 16:31:42
ECHO = NONE
SUBCASE 1
$ Subcase name : DEFAULT.SC1
   SUBTITLE=DEFAULT.SC1
   SPC = 2
   LOAD = 12
   DISPLACEMENT(SORT1,REAL)=ALL
   SPCFORCES(SORT1,REAL)=ALL
   STRESS(SORT1,REAL,VONMISES,BILIN)=ALL
BEGIN BULK
PARAM    POST    0
PARAM    GRDPNT  0
PARAM   PRTMAXIM YES
$ Elements and Element Properties for region : prod.2
PROD     1       2      1.
PROD     2       2      1.
PROD     3       2      1.
PROD     4       2      1.
PROD     5       2      1.
PROD     6       2      1.
PROD     7       2      1.
PROD     8       2      1.
PROD     9       2      1.
PROD     10      2      1.
PROD     11      2      1.
PROD     12      2      1.
PROD     13      2      1.
PROD     14      2      1.
PROD     15      2      1.
PROD     16      2      1.
PROD     17      2      1.
PROD     18      2      1.
PROD     19      2      1.
PROD     20      2      1.
PROD     21      2      1.
PROD     22      2      1.
PROD     23      2      1.
PROD     24      2      1.
PROD     25      2      1.
PROD     26      2      1.
PROD     27      2      1.
PROD     28      2      1.
PROD     29      2      1.
PROD     30      2      1.
PROD     31      2      1.
PROD     32      2      1.
PROD     33      2      1.
PROD     34      2      1.
PROD     35      2      1.
PROD     36      2      1.
PROD     37      2      1.
PROD     38      2      1.
PROD     39      2      1.
PROD     40      2      1.
PROD     41      2      1.
PROD     42      2      1.
PROD     43      2      1.
PROD     44      2      1.
PROD     45      2      1.
PROD     46      2      1.
PROD     47      2      1.
PROD     48      2      1.
PROD     49      2      1.
PROD     50      2      1.
PROD     51      2      1.
PROD     52      2      1.
PROD     53      2      1.
PROD     54      2      1.
PROD     55      2      1.
PROD     56      2      1.
PROD     57      2      1.
PROD     58      2      1.
PROD     59      2      1.
PROD     60      2      1.
PROD     61      2      1.
PROD     62      2      1.
PROD     63      2      1.
PROD     64      2      1.
PROD     65      2      1.
PROD     66      2      1.
PROD     67      2      1.
PROD     68      2      1.
PROD     69      2      1.
PROD     70      2      1.
PROD     71      2      1.
PROD     72      2      1.
PROD     73      2      1.
PROD     74      2      1.
PROD     75      2      1.
PROD     76      2      1.
PROD     77      2      1.
PROD     78      2      1.
PROD     79      2      1.
PROD     80      2      1.
PROD     81      2      1.
PROD     82      2      1.
PROD     83      2      1.
PROD     84      2      1.
PROD     85      2      1.
PROD     86      2      1.
PROD     87      2      1.
PROD     88      2      1.
PROD     89      2      1.
PROD     90      2      1.
PROD     91      2      1.
PROD     92      2      1.
PROD     93      2      1.
PROD     94      2      1.
PROD     95      2      1.
PROD     96      2      1.
PROD     97      2      1.
PROD     98      2      1.
PROD     99      2      1.
PROD     100     2      1.
PROD     101     2      1.
PROD     102     2      1.
PROD     103     2      1.
PROD     104     2      1.
PROD     105     2      1.
PROD     106     2      1.
PROD     107     2      1.
PROD     108     2      1.
PROD     109     2      1.
PROD     110     2      1.
PROD     111     2      1.
PROD     112     2      1.
PROD     113     2      1.
PROD     114     2      1.
PROD     115     2      1.
PROD     116     2      1.
PROD     117     2      1.
PROD     118     2      1.
PROD     119     2      1.
PROD     120     2      1.
PROD     121     2      1.
PROD     122     2      1.
PROD     123     2      1.
PROD     124     2      1.
PROD     125     2      1.
PROD     126     2      1.
PROD     127     2      1.
PROD     128     2      1.
PROD     129     2      1.
PROD     130     2      1.
PROD     131     2      1.
PROD     132     2      1.
PROD     133     2      1.
PROD     134     2      1.
PROD     135     2      1.
PROD     136     2      1.
PROD     137     2      1.
PROD     138     2      1.
PROD     139     2      1.
PROD     140     2      1.
PROD     141     2      1.
PROD     142     2      1.
PROD     143     2      1.
PROD     144     2      1.
PROD     145     2      1.
PROD     146     2      1.
PROD     147     2      1.
PROD     148     2      1.
PROD     149     2      1.
PROD     150     2      1.
PROD     151     2      1.
PROD     152     2      1.
PROD     153     2      1.
PROD     154     2      1.
PROD     155     2      1.
PROD     156     2      1.
$ Pset: "prod.2" will be imported as: "prod.2"
CROD     1       1       1       5
CROD     2       2       1       4
CROD     3       3       1       3
CROD     4       4       1       2
CROD     5       5       1       7
CROD     6       6       1       6
CROD     7       7       4       5
CROD     8       8       3       4
CROD     9       9       2       3
CROD     10      10      2       7
CROD     11      11      6       7
CROD     12      12      5       6
CROD     13      13      5       15
CROD     14      14      5       14
CROD     15      15      4       14
CROD     16      16      4       13
CROD     17      17      4       12
CROD     18      18      3       12
CROD     19      19      3       11
CROD     20      20      3       10
CROD     21      21      2       10
CROD     22      22      2       9
CROD     23      23      2       8
CROD     24      24      7       8
CROD     25      25      7       19
CROD     26      26      7       18
CROD     27      27      6       18
CROD     28      28      6       17
CROD     29      29      6       16
CROD     30      30      5       16
CROD     31      31      14      15
CROD     32      32      13      14
CROD     33      33      12      13
CROD     34      34      11      12
CROD     35      35      10      11
CROD     36      36      9       10
CROD     37      37      8       9
CROD     38      38      8       19
CROD     39      39      18      19
CROD     40      40      17      18
CROD     41      41      16      17
CROD     42      42      15      16
CROD     43      43      15      31
CROD     44      44      15      30
CROD     45      45      14      30
CROD     46      46      14      29
CROD     47      47      13      29
CROD     48      48      13      28
CROD     49      49      13      27
CROD     50      50      12      27
CROD     51      51      12      26
CROD     52      52      11      26
CROD     53      53      11      25
CROD     54      54      11      24
CROD     55      55      10      24
CROD     56      56      10      23
CROD     57      57      9       23
CROD     58      58      9       22
CROD     59      59      9       21
CROD     60      60      8       21
CROD     61      61      8       20
CROD     62      62      19      20
CROD     63      63      19      37
CROD     64      64      19      36
CROD     65      65      18      36
CROD     66      66      18      35
CROD     67      67      17      35
CROD     68      68      17      34
CROD     69      69      17      33
CROD     70      70      16      33
CROD     71      71      16      32
CROD     72      72      15      32
CROD     73      73      30      31
CROD     74      74      29      30
CROD     75      75      28      29
CROD     76      76      27      28
CROD     77      77      26      27
CROD     78      78      25      26
CROD     79      79      24      25
CROD     80      80      23      24
CROD     81      81      22      23
CROD     82      82      21      22
CROD     83      83      20      21
CROD     84      84      20      37
CROD     85      85      36      37
CROD     86      86      35      36
CROD     87      87      34      35
CROD     88      88      33      34
CROD     89      89      32      33
CROD     90      90      31      32
CROD     91      91      31      54
CROD     92      92      31      53
CROD     93      93      30      53
CROD     94      94      30      52
CROD     95      95      29      52
CROD     96      96      29      51
CROD     97      97      28      51
CROD     98      98      28      50
CROD     99      99      28      49
CROD     100     100     27      49
CROD     101     101     27      48
CROD     102     102     26      48
CROD     103     103     26      47
CROD     104     104     25      47
CROD     105     105     25      46
CROD     106     106     25      45
CROD     107     107     24      45
CROD     108     108     24      44
CROD     109     109     23      44
CROD     110     110     23      43
CROD     111     111     22      43
CROD     112     112     22      42
CROD     113     113     22      41
CROD     114     114     21      41
CROD     115     115     21      40
CROD     116     116     20      40
CROD     117     117     20      39
CROD     118     118     37      39
CROD     119     119     37      38
CROD     120     120     37      61
CROD     121     121     36      61
CROD     122     122     36      60
CROD     123     123     35      60
CROD     124     124     35      59
CROD     125     125     34      59
CROD     126     126     34      58
CROD     127     127     34      57
CROD     128     128     33      57
CROD     129     129     33      56
CROD     130     130     32      56
CROD     131     131     32      55
CROD     132     132     31      55
CROD     133     133     53      54
CROD     134     134     52      53
CROD     135     135     51      52
CROD     136     136     50      51
CROD     137     137     49      50
CROD     138     138     48      49
CROD     139     139     47      48
CROD     140     140     46      47
CROD     141     141     45      46
CROD     142     142     44      45
CROD     143     143     43      44
CROD     144     144     42      43
CROD     145     145     41      42
CROD     146     146     40      41
CROD     147     147     39      40
CROD     148     148     38      39
CROD     149     149     38      61
CROD     150     150     60      61
CROD     151     151     59      60
CROD     152     152     58      59
CROD     153     153     57      58
CROD     154     154     56      57
CROD     155     155     55      56
CROD     156     156     54      55
$ Elements and Element Properties for region : pshell.1
PSHELL   157     1      1.       1      1.              .833333
PSHELL   158     1      1.       1      1.              .833333
PSHELL   159     1      1.       1      1.              .833333
PSHELL   160     1      1.       1      1.              .833333
PSHELL   161     1      1.       1      1.              .833333
PSHELL   162     1      1.       1      1.              .833333
PSHELL   163     1      1.       1      1.              .833333
PSHELL   164     1      1.       1      1.              .833333
PSHELL   165     1      1.       1      1.              .833333
PSHELL   166     1      1.       1      1.              .833333
PSHELL   167     1      1.       1      1.              .833333
PSHELL   168     1      1.       1      1.              .833333
PSHELL   169     1      1.       1      1.              .833333
PSHELL   170     1      1.       1      1.              .833333
PSHELL   171     1      1.       1      1.              .833333
PSHELL   172     1      1.       1      1.              .833333
PSHELL   173     1      1.       1      1.              .833333
PSHELL   174     1      1.       1      1.              .833333
PSHELL   175     1      1.       1      1.              .833333
PSHELL   176     1      1.       1      1.              .833333
PSHELL   177     1      1.       1      1.              .833333
PSHELL   178     1      1.       1      1.              .833333
PSHELL   179     1      1.       1      1.              .833333
PSHELL   180     1      1.       1      1.              .833333
PSHELL   181     1      1.       1      1.              .833333
PSHELL   182     1      1.       1      1.              .833333
PSHELL   183     1      1.       1      1.              .833333
PSHELL   184     1      1.       1      1.              .833333
PSHELL   185     1      1.       1      1.              .833333
PSHELL   186     1      1.       1      1.              .833333
PSHELL   187     1      1.       1      1.              .833333
PSHELL   188     1      1.       1      1.              .833333
PSHELL   189     1      1.       1      1.              .833333
PSHELL   190     1      1.       1      1.              .833333
PSHELL   191     1      1.       1      1.              .833333
PSHELL   192     1      1.       1      1.              .833333
PSHELL   193     1      1.       1      1.              .833333
PSHELL   194     1      1.       1      1.              .833333
PSHELL   195     1      1.       1      1.              .833333
PSHELL   196     1      1.       1      1.              .833333
PSHELL   197     1      1.       1      1.              .833333
PSHELL   198     1      1.       1      1.              .833333
PSHELL   199     1      1.       1      1.              .833333
PSHELL   200     1      1.       1      1.              .833333
PSHELL   201     1      1.       1      1.              .833333
PSHELL   202     1      1.       1      1.              .833333
PSHELL   203     1      1.       1      1.              .833333
PSHELL   204     1      1.       1      1.              .833333
PSHELL   205     1      1.       1      1.              .833333
PSHELL   206     1      1.       1      1.              .833333
PSHELL   207     1      1.       1      1.              .833333
PSHELL   208     1      1.       1      1.              .833333
PSHELL   209     1      1.       1      1.              .833333
PSHELL   210     1      1.       1      1.              .833333
PSHELL   211     1      1.       1      1.              .833333
PSHELL   212     1      1.       1      1.              .833333
PSHELL   213     1      1.       1      1.              .833333
PSHELL   214     1      1.       1      1.              .833333
PSHELL   215     1      1.       1      1.              .833333
PSHELL   216     1      1.       1      1.              .833333
PSHELL   217     1      1.       1      1.              .833333
PSHELL   218     1      1.       1      1.              .833333
PSHELL   219     1      1.       1      1.              .833333
PSHELL   220     1      1.       1      1.              .833333
PSHELL   221     1      1.       1      1.              .833333
PSHELL   222     1      1.       1      1.              .833333
PSHELL   223     1      1.       1      1.              .833333
PSHELL   224     1      1.       1      1.              .833333
PSHELL   225     1      1.       1      1.              .833333
PSHELL   226     1      1.       1      1.              .833333
PSHELL   227     1      1.       1      1.              .833333
PSHELL   228     1      1.       1      1.              .833333
PSHELL   229     1      1.       1      1.              .833333
PSHELL   230     1      1.       1      1.              .833333
PSHELL   231     1      1.       1      1.              .833333
PSHELL   232     1      1.       1      1.              .833333
PSHELL   233     1      1.       1      1.              .833333
PSHELL   234     1      1.       1      1.              .833333
PSHELL   235     1      1.       1      1.              .833333
PSHELL   236     1      1.       1      1.              .833333
PSHELL   237     1      1.       1      1.              .833333
PSHELL   238     1      1.       1      1.              .833333
PSHELL   239     1      1.       1      1.              .833333
PSHELL   240     1      1.       1      1.              .833333
PSHELL   241     1      1.       1      1.              .833333
PSHELL   242     1      1.       1      1.              .833333
PSHELL   243     1      1.       1      1.              .833333
PSHELL   244     1      1.       1      1.              .833333
PSHELL   245     1      1.       1      1.              .833333
PSHELL   246     1      1.       1      1.              .833333
PSHELL   247     1      1.       1      1.              .833333
PSHELL   248     1      1.       1      1.              .833333
PSHELL   249     1      1.       1      1.              .833333
PSHELL   250     1      1.       1      1.              .833333
PSHELL   251     1      1.       1      1.              .833333
PSHELL   252     1      1.       1      1.              .833333
PSHELL   253     1      1.       1      1.              .833333
$ Pset: "pshell.1" will be imported as: "pshell.1"
CTRIA3   157     157     1       2       3       0.      0.
CTRIA3   158     158     1       3       4       0.      0.
CTRIA3   159     159     1       4       5       0.      0.
CTRIA3   160     160     1       5       6       0.      0.
CTRIA3   161     161     1       6       7       0.      0.
CTRIA3   162     162     1       2       7       0.      0.
CTRIA3   163     163     2       3       10      0.      0.
CTRIA3   164     164     2       9       10      0.      0.
CTRIA3   165     165     2       8       9       0.      0.
CTRIA3   166     166     2       7       8       0.      0.
CTRIA3   167     167     7       8       19      0.      0.
CTRIA3   168     168     7       18      19      0.      0.
CTRIA3   169     169     6       7       18      0.      0.
CTRIA3   170     170     6       17      18      0.      0.
CTRIA3   171     171     6       16      17      0.      0.
CTRIA3   172     172     5       6       16      0.      0.
CTRIA3   173     173     5       15      16      0.      0.
CTRIA3   174     174     5       14      15      0.      0.
CTRIA3   175     175     4       5       14      0.      0.
CTRIA3   176     176     4       13      14      0.      0.
CTRIA3   177     177     4       12      13      0.      0.
CTRIA3   178     178     3       4       12      0.      0.
CTRIA3   179     179     3       11      12      0.      0.
CTRIA3   180     180     3       10      11      0.      0.
CTRIA3   181     181     9       10      23      0.      0.
CTRIA3   182     182     9       22      23      0.      0.
CTRIA3   183     183     9       21      22      0.      0.
CTRIA3   184     184     8       9       21      0.      0.
CTRIA3   185     185     8       20      21      0.      0.
CTRIA3   186     186     8       19      20      0.      0.
CTRIA3   187     187     19      20      37      0.      0.
CTRIA3   188     188     19      36      37      0.      0.
CTRIA3   189     189     18      19      36      0.      0.
CTRIA3   190     190     18      35      36      0.      0.
CTRIA3   191     191     17      18      35      0.      0.
CTRIA3   192     192     17      34      35      0.      0.
CTRIA3   193     193     17      33      34      0.      0.
CTRIA3   194     194     16      17      33      0.      0.
CTRIA3   195     195     16      32      33      0.      0.
CTRIA3   196     196     15      16      32      0.      0.
CTRIA3   197     197     15      31      32      0.      0.
CTRIA3   198     198     15      30      31      0.      0.
CTRIA3   199     199     14      15      30      0.      0.
CTRIA3   200     200     14      29      30      0.      0.
CTRIA3   201     201     13      14      29      0.      0.
CTRIA3   202     202     13      28      29      0.      0.
CTRIA3   203     203     13      27      28      0.      0.
CTRIA3   204     204     12      13      27      0.      0.
CTRIA3   205     205     12      26      27      0.      0.
CTRIA3   206     206     11      12      26      0.      0.
CTRIA3   207     207     11      25      26      0.      0.
CTRIA3   208     208     11      24      25      0.      0.
CTRIA3   209     209     10      11      24      0.      0.
CTRIA3   210     210     10      23      24      0.      0.
CTRIA3   211     211     23      24      44      0.      0.
CTRIA3   212     212     23      43      44      0.      0.
CTRIA3   213     213     22      23      43      0.      0.
CTRIA3   214     214     22      42      43      0.      0.
CTRIA3   215     215     22      41      42      0.      0.
CTRIA3   216     216     21      22      41      0.      0.
CTRIA3   217     217     21      40      41      0.      0.
CTRIA3   218     218     20      21      40      0.      0.
CTRIA3   219     219     20      39      40      0.      0.
CTRIA3   220     220     20      37      39      0.      0.
CTRIA3   221     221     37      38      39      0.      0.
CTRIA3   222     222     37      38      61      0.      0.
CTRIA3   223     223     36      37      61      0.      0.
CTRIA3   224     224     36      60      61      0.      0.
CTRIA3   225     225     35      36      60      0.      0.
CTRIA3   226     226     35      59      60      0.      0.
CTRIA3   227     227     34      35      59      0.      0.
CTRIA3   228     228     34      58      59      0.      0.
CTRIA3   229     229     34      57      58      0.      0.
CTRIA3   230     230     33      34      57      0.      0.
CTRIA3   231     231     33      56      57      0.      0.
CTRIA3   232     232     32      33      56      0.      0.
CTRIA3   233     233     32      55      56      0.      0.
CTRIA3   234     234     31      32      55      0.      0.
CTRIA3   235     235     31      54      55      0.      0.
CTRIA3   236     236     31      53      54      0.      0.
CTRIA3   237     237     30      31      53      0.      0.
CTRIA3   238     238     30      52      53      0.      0.
CTRIA3   239     239     29      30      52      0.      0.
CTRIA3   240     240     29      51      52      0.      0.
CTRIA3   241     241     28      29      51      0.      0.
CTRIA3   242     242     28      50      51      0.      0.
CTRIA3   243     243     28      49      50      0.      0.
CTRIA3   244     244     27      28      49      0.      0.
CTRIA3   245     245     27      48      49      0.      0.
CTRIA3   246     246     26      27      48      0.      0.
CTRIA3   247     247     26      47      48      0.      0.
CTRIA3   248     248     25      26      47      0.      0.
CTRIA3   249     249     25      46      47      0.      0.
CTRIA3   250     250     25      45      46      0.      0.
CTRIA3   251     251     24      25      45      0.      0.
CTRIA3   252     252     24      44      45      0.      0.
$ Referenced Material Records
$ Material Record : mat1.1
$ Description of Material :
MAT1     1      3.+7    1.1539+7.3      .289                            +      A
+      A30000.  30000.  30000.
$ Material Record : mat1.2
$ Description of Material :
MAT1     2      1.+7    1.1539+7.3      .1                              +      B
+      B14000.  14000.  14000.
$ Nodes of the Entire Model
GRID     1               0.      0.     30.
GRID     2              15.     -25.980828.2291
GRID     3              30.      0.     28.2292
GRID     4              15.     25.9808 28.2291
GRID     5              -15.    25.9808 28.2291
GRID     6              -30.     0.     28.2292
GRID     7              -15.    -25.980828.2291
GRID     8               0.     -51.816 24.68
GRID     9              30.     -51.816 22.8711
GRID     10             45.     -25.980824.6498
GRID     11             60.      0.     22.8407
GRID     12             45.     25.9808 24.6498
GRID     13             30.     51.816  22.8711
GRID     14              0.     51.816  24.68
GRID     15             -30.    51.816  22.8711
GRID     16             -45.    25.9808 24.6498
GRID     17             -60.     0.     22.8407
GRID     18             -45.    -25.980824.6498
GRID     19             -30.    -51.816 22.8711
GRID     20             -15.    -77.942417.3324
GRID     21             15.     -77.942417.3324
GRID     22             45.     -77.942413.5896
GRID     23             60.     -51.816 17.3636
GRID     24             75.     -25.980817.3324
GRID     25             90.      0.     13.5896
GRID     26             75.     25.9808 17.3324
GRID     27             60.     51.816  17.3636
GRID     28             45.     77.9424 13.5896
GRID     29             15.     77.9424 17.3324
GRID     30             -15.    77.9424 17.3324
GRID     31             -45.    77.9424 13.5896
GRID     32             -60.    51.816  17.3636
GRID     33             -75.    25.9808 17.3324
GRID     34             -90.     0.     13.5896
GRID     35             -75.    -25.980817.3324
GRID     36             -60.    -51.816 17.3636
GRID     37             -45.    -77.942413.5896
GRID     38             -60.    -103.9232.-5
GRID     39             -30.    -103.9235.92209
GRID     40              0.     -103.9237.86264
GRID     41             30.     -103.9235.92209
GRID     42             60.     -103.9232.-5
GRID     43             75.     -77.94245.92203
GRID     44             90.     -51.816 7.89505
GRID     45             105.    -25.98085.92206
GRID     46             120.     0.      0.
GRID     47             105.    25.9808 5.92206
GRID     48             90.     51.816  7.89505
GRID     49             75.     77.9424 5.92203
GRID     50             60.     103.923 2.-5
GRID     51             30.     103.923 5.92209
GRID     52              0.     103.923 7.86264
GRID     53             -30.    103.923 5.92209
GRID     54             -60.    103.923 2.-5
GRID     55             -75.    77.9424 5.92203
GRID     56             -90.    51.816  7.89505
GRID     57             -105.   25.9808 5.92206
GRID     58             -120.    0.      0.
GRID     59             -105.   -25.98085.92206
GRID     60             -90.    -51.816 7.89505
GRID     61             -75.    -77.94245.92203
$ Loads for Load Case : DEFAULT.SC1
SPCADD   2       1
LOAD     12     1.      1.       10
$ Displacement Constraints of Load Set : spc1.1
SPC1     1       123     38      THRU    61
$ Nodal Forces of Load Set : force.10
FORCE    10      1       0      25000.   0.      0.     1.
FORCE    10      2       0      25000.   0.      0.     1.
FORCE    10      3       0      25000.   0.      0.     1.
FORCE    10      4       0      25000.   0.      0.     1.
FORCE    10      5       0      25000.   0.      0.     1.
FORCE    10      6       0      25000.   0.      0.     1.
FORCE    10      7       0      25000.   0.      0.     1.
FORCE    10      8       0      25000.   0.      0.     1.
FORCE    10      9       0      25000.   0.      0.     1.
FORCE    10      10      0      25000.   0.      0.     1.
FORCE    10      11      0      25000.   0.      0.     1.
FORCE    10      12      0      25000.   0.      0.     1.
FORCE    10      13      0      25000.   0.      0.     1.
FORCE    10      14      0      25000.   0.      0.     1.
FORCE    10      15      0      25000.   0.      0.     1.
FORCE    10      16      0      25000.   0.      0.     1.
FORCE    10      17      0      25000.   0.      0.     1.
FORCE    10      18      0      25000.   0.      0.     1.
FORCE    10      19      0      25000.   0.      0.     1.
FORCE    10      20      0      25000.   0.      0.     1.
FORCE    10      21      0      25000.   0.      0.     1.
FORCE    10      22      0      25000.   0.      0.     1.
FORCE    10      23      0      25000.   0.      0.     1.
FORCE    10      24      0      25000.   0.      0.     1.
FORCE    10      25      0      25000.   0.      0.     1.
FORCE    10      26      0      25000.   0.      0.     1.
FORCE    10      27      0      25000.   0.      0.     1.
FORCE    10      28      0      25000.   0.      0.     1.
FORCE    10      29      0      25000.   0.      0.     1.
FORCE    10      30      0      25000.   0.      0.     1.
FORCE    10      31      0      25000.   0.      0.     1.
FORCE    10      32      0      25000.   0.      0.     1.
FORCE    10      33      0      25000.   0.      0.     1.
FORCE    10      34      0      25000.   0.      0.     1.
FORCE    10      35      0      25000.   0.      0.     1.
FORCE    10      36      0      25000.   0.      0.     1.
FORCE    10      37      0      25000.   0.      0.     1.
$ Referenced Coordinate Frames
ENDDATA 378f91c0
