$EXECUTIVE CONTROL DECK
$ NASTRAN input file created by the MSC MSC.Nastran input file
$ translator ( MSC.Patran 13.1.116 ) on November  30, 2009 at 13:30:13.
$ Direct Text Input for Nastran System Cell Section
$ Linear Static Analysis, Database
SOL 101
CEND
$CASE CONTROL DECK
ECHO = NONE
SUBCASE 1
    DISPLACEMENT(PLOT, SORT1,REAL) = ALL
    FORCE(SORT1,REAL,BILIN) = ALL
    LOAD = 3
    SPC = 2
    SPCFORCES(SORT1,REAL) = ALL
    STRESS(SORT1,REAL,VONMISES,BILIN) = ALL
    SUBTITLE = UNTITLED.SC4
BEGIN BULK
$PARAMS
PARAM*            GRDPNT               0
*
PARAM*             K6ROT             40.
*
$PARAM    POST    0
PARAM*              POST              -1
*
$PARAM    WTMASS .00259
PARAM*           POSTEXT             YES
*
PARAM*          PRTMAXIM             YES
*
$NODES
$ Nodes of the Entire Model
GRID*                  1                0.0000000000e+000.0000000000e+00
*       0.0000000000e+00
GRID*                  2                -1.000000000e+021.0000000000e+02
*       0.0000000000e+00
GRID*                  3                0.0000000000e+001.0000000000e+02
*       0.0000000000e+00
GRID*                  4                1.0000000000e+021.0000000000e+02
*       0.0000000000e+00
$ELEMENTS_WITH_PROPERTIES
$ Elements and Element Properties for region : prod.11
$2345678123456781234567812345678123456781234567812345678123456781234567812345678
PROD*                 11               5           18.88
*
CROD*                  1              11               1               2
*
$ Elements and Element Properties for region : prod.12
PROD*                 12               5             45.
*
CROD*                  2              12               1               3
*
$ Elements and Element Properties for region : prod.13
PROD*                 13               52902.55950333333
*
CROD*                  3              13               1               4
*
$MATERIALS
$ Referenced Material Records
$ Material Record : mat1.5
$ Description of Material :
$2345678123456781234567812345678123456781234567812345678123456781234567812345678
MAT1*                  5       30000000.                              .3
*                   .284        .0000066
*                 20000.          20000.          20000.
*
$LOADS
$2345678123456781234567812345678123456781234567812345678123456781234567812345678
LOAD*                  3              1.              1.              24
*                     1.              25
$
$TEMP     9       1       100.0
$TEMPD    9       0.0
$ Nodal Forces of Load Set : force.8
$2345678123456781234567812345678123456781234567812345678123456781234567812345678
$SPCD     13      2       1       0.1
$SPCD     14      2       2      -0.15
FORCE*                24               1               0          50000.
*                     1.             .-0             .-0
FORCE*                25               1               0         100000.
*                    .-0             -1.             .-0
$SPCs
$ Loads for Load Case : Untitled.SC4
SPCADD         2      11
$LOAD     13     1.      1.      13      1.      14      1.      24      +RC2
$+RC2     1.     25
$ Displacement Constraints of Load Set : spc.11.SC4
SPC1          11    3456       1
SPC1          11  123456       2
SPC1          11  123456       3
SPC1          11  123456       4
ENDDATA
