$$$$$$$$$$$$$$$$$$$$$$$$$$$$$$$$$$$$$$$$$$$$$$$$$$$$$$$$$$$$$$$$$$$$$$$$$$$$$$$$$$$$$$$
$
$ DESCRIPTION  - Test for new DESOBJ card (ENFUNC Option)
$
$ SOLUTION     - 200
$
$$$$$$$$$$$$$$$$$$$$$$$$$$$$$$$$$$$$$$$$$$$$$$$$$$$$$$$$$$$$$$$$$$$$$$$$$$$$$$$$$$$$$$$
$
$*$$$$$$$$$$$$$$$$$$$$$$$$$$$$$$$$$$$
$*
$* EXECUTIVE CONTROL
$*
$*$$$$$$$$$$$$$$$$$$$$$$$$$$$$$$$$$$$
$*
SOL 200
CEND
$*
$*$$$$$$$$$$$$$$$$$$$$$$$$$$$$$$$$$$$
$*
$* CASE CONTROL
$*
$*$$$$$$$$$$$$$$$$$$$$$$$$$$$$$$$$$$$
$*
ECHO = PUNCH(BSTBULK)
$
SPC = 1
SET 5 = 323, 340, 341, 804, 822, 823
OUTPUT
DISPLACEMENT(PRINT) = 5
DESGLB = 66
$
$*
SUBCASE 1
ANALYSIS = STATICS
LOAD = 1
DESSUB = 61
$
SUBCASE 2
ANALYSIS = STATICS
LOAD = 2
DESSUB = 62
$
SUBCASE 3
ANALYSIS = STATICS
LOAD = 3
DESOBJ(MIN, ENFUNC=AVG) = 11
DESSUB = 63
$
SUBCASE 4
ANALYSIS = STATICS
LOAD = 4
DESSUB = 64
$
SUBCASE 5
ANALYSIS = STATICS
LOAD = 5
DESSUB = 65
$
$*
$*$$$$$$$$$$$$$$$$$$$$$$$$$$$$$$$$$$$
$*
$* BULK DATA
$*
$*$$$$$$$$$$$$$$$$$$$$$$$$$$$$$$$$$$$
$*
BEGIN BULK
$*
$* PARAM CARDS
$*
PARAM    NASPDV        1
PARAM      K6ROT   100.0
PARAM     OIBULK     YES
PARAM    OMACHPR     YES
PARAM       POST      -2
$
PARAM, PRGPST, NO
$
$23456781234567812345678123456781234567812345678123456781234567812345678
DRESP1        11     UZ1    DISP                       3             323+
+            340     341     804     822     823
$
DRESP1, 12, CMPL1, CMPLNCE
$
DRESP1, 13, WGT, DWEIGHT
$
DCONSTR, 61, 12, 0.2E6, 1.0E6
DCONSTR, 62, 12, 0.3E6, 1.2E6
DCONSTR, 63, 12, 0.2E6, 1.4E6
DCONSTR, 64, 12, 0.3E6, 1.6E6
DCONSTR, 65, 12, 0.4E6, 1.8E6
DCONSTR, 66, 13, , 7.5E-2
$
DOPTPRM, DESMAX, 20
$
$
GROUP        300 			                                +
$           TYPE     ID1  "THRU"     ID2                                
+           ELEM     121    THRU     146                                +
$           TYPE     ID3  "THRU"     ID4
+           ELEM     211    THRU     230
$
$
DVTREL1, 99, , 300, FROZEN, , , , , +D2
+D2, 401
$
$*
$* GRID CARDS
$*
GRID           1       0    90.0    10.0     2.0       0
GRID           2       0    90.0    20.0     2.0       0
GRID           3       0    90.0    30.0     2.0       0
GRID           4       0    90.0    40.0     2.0       0
GRID           5       0    90.0    50.0     2.0       0
GRID           6       0    90.0    60.0     2.0       0
GRID           7       0    90.0    70.0     2.0       0
GRID           8       0    90.0    80.0     2.0       0
GRID           9       0    90.0    90.0     2.0       0
GRID          10       0    80.0    90.0     2.0       0
GRID          11       0    70.0    90.0     2.0       0
GRID          12       0    60.0    90.0     2.0       0
GRID          13       0    50.0    90.0     2.0       0
GRID          14       0    40.0    90.0     2.0       0
GRID          15       0    30.0    90.0     2.0       0
GRID          16       0    20.0    90.0     2.0       0
GRID          17       0    10.0    90.0     2.0       0
GRID          18       0    10.0    80.0     2.0       0
GRID          19       0    10.0    70.0     2.0       0
GRID          20       0    10.0    60.0     2.0       0
$ ... 803 like lines cut
$*
$* ELEMENT CARDS
$*
$*  Mesh Collector: Solid(1)
$*  Mesh: 3d_mesh(1)
CHEXA        121       3      10     307     308       9     460     781+
+            780     459     101     310     100     102     352     729+
+            730     353     532     789     533     534
CHEXA        122       3      11     306     307      10     461     782+
+            781     460     103     311     101     104     354     728+
+            729     352     535     790     532     536
CHEXA        123       3      12     305     306      11     462     783+
+            782     461     105     312     103     106     355     727+
+            728     354     537     791     535     538
CHEXA        124       3      13     304     305      12     463     784+
+            783     462     107     313     105     108     356     726+
+            727     355     539     792     537     540
CHEXA        125       3      14     303     304      13     464     785+
+            784     463     109     314     107     110     357     725+
+            726     356     541     793     539     542
CHEXA        126       3      15     302     303      14     465     786+
+            785     464     111     315     109     112     358     724+
+            725     357     543     794     541     544
CHEXA        127       3      16     301     302      15     466     787+
+            786     465     113     316     111     114     359     723+
+            724     358     545     795     543     546
CHEXA        128       3      17     300     301      16     467     788+
+            787     466     115     317     113     116     360     722+
+            723     359     547     796     545     548
CHEXA        129       3     270     339     300      17     741     821+
+            788     467     271     318     115     117     433     760+
+            722     360     750     797     547     549
CHEXA        130       3      18     269     270      17     468     742+
+            741     467     118     272     117     119     361     434+
+            433     360     550     751     549     551
CHEXA        131       3      19     268     269      18     469     743+
+            742     468     120     273     118     121     362     435+
+            434     361     552     752     550     553
CHEXA        132       3      20     267     268      19     470     744+
+            743     469     122     274     120     123     363     436+
+            435     362     554     753     552     555
CHEXA        133       3      21     266     267      20     471     745+
+            744     470     124     275     122     125     364     437+
+            436     363     556     754     554     557
CHEXA        134       3      22     265     266      21     472     746+
+            745     471     126     276     124     127     365     438+
+            437     364     558     755     556     559
CHEXA        135       3      23     264     265      22     473     747+
+            746     472     128     277     126     129     366     439+
+            438     365     560     756     558     561
CHEXA        136       3      24     263     264      23     474     748+
+            747     473     130     278     128     131     367     440+
+            439     366     562     757     560     563
CHEXA        137       3      25     262     263      24     475     749+
+            748     474     132     279     130     133     368     441+
+            440     367     564     758     562     565
CHEXA        138       3     289     338     262      25     761     820+
+            749     475     291     280     132     134     442     740+
+            441     368     770     759     564     566
CHEXA        139       3      26     288     289      25     476     762+
+            761     475     135     292     134     136     369     443+
+            442     368     567     771     566     568
CHEXA        140       3      27     287     288      26     477     763+
+            762     476     137     293     135     138     370     444+
+            443     369     569     772     567     570
$ ... 210 like lines cut
CPENTA       211       3     340     281       1     822     769     451+
+            290      82     342     799     450     376     779     581+
+            703
CPENTA       212       3     327     340       1     800     822     451+
+            328     342      83     739     799     376     809     703+
+            704
CPENTA       213       3       2     327       1     452     800     451+
+            343      83      85     377     739     376     705     704+
+            583
CPENTA       214       3       2     326     327     452     801     800+
+             84     329     343     377     738     739     706     810+
+            705
CPENTA       215       3       3     326       2     453     801     452+
+            344      84      87     380     738     377     707     706+
+            587
CPENTA       216       3       3     325     326     453     802     801+
+             86     330     344     380     737     738     708     811+
+            707
CPENTA       217       3       4     325       3     454     802     453+
+            345      86      89     382     737     380     709     708+
+            590
CPENTA       218       3       4     324     325     454     803     802+
+             88     331     345     382     736     737     710     812+
+            709
CPENTA       219       3       5     324       4     455     803     454+
+            346      88      91     384     736     382     711     710+
+            593
CPENTA       220       3       5     323     324     455     804     803+
+             90     332     346     384     735     736     712     813+
+            711
CPENTA       221       3       6     323       5     456     804     455+
+            347      90      93     386     735     384     713     712+
+            596
CPENTA       222       3       6     322     323     456     805     804+
+             92     333     347     386     734     735     714     814+
+            713
CPENTA       223       3       7     322       6     457     805     456+
+            348      92      95     388     734     386     715     714+
+            599
CPENTA       224       3       7     321     322     457     806     805+
+             94     334     348     388     733     734     716     815+
+            715
CPENTA       225       3       8     321       7     458     806     457+
+            349      94      97     390     733     388     717     716+
+            602
CPENTA       226       3       8     320     321     458     807     806+
+             96     335     349     390     732     733     718     816+
+            717
CPENTA       227       3       9     320       8     459     807     458+
+            350      96      99     353     732     390     719     718+
+            604
CPENTA       228       3       9     319     320     459     808     807+
+             98     336     350     353     731     732     720     817+
+            719
CPENTA       229       3     308     319       9     780     808     459+
+            351      98     100     730     731     353     721     720+
+            533
CPENTA       230       3     308     341     319     780     823     808+
+            309     337     351     730     819     731     798     818+
+            721
$*
$* PROPERTY CARDS
$*
$*  Property: PSOLID2
PSOLID         3       1       0                           SMECH
$*
$* MATERIAL CARDS
$*
$*  Material: AISI_Steel_1005
MAT1           1   2.0+8             .25 7.872-6  1.26-5
$*
$* LOAD AND CONSTRAINT CARDS
$*
$*  Constraint: Fixed(1)
SPC            1     262  123456     0.0
SPC            1     263  123456     0.0
SPC            1     264  123456     0.0
SPC            1     265  123456     0.0
SPC            1     266  123456     0.0
SPC            1     267  123456     0.0
SPC            1     268  123456     0.0
SPC            1     269  123456     0.0
SPC            1     270  123456     0.0
SPC            1     271  123456     0.0
SPC            1     272  123456     0.0
SPC            1     273  123456     0.0
SPC            1     274  123456     0.0
SPC            1     275  123456     0.0
SPC            1     276  123456     0.0
SPC            1     277  123456     0.0
SPC            1     278  123456     0.0
SPC            1     279  123456     0.0
SPC            1     280  123456     0.0
SPC            1     338  123456     0.0
$ ... 33 like lines cut
$*  
FORCE          1     323       0   1.0+5     0.0     0.0     1.0
FORCE          2     321       0   1.0+5     0.0     0.0     1.0
FORCE          3     325       0   1.0+5     0.0     0.0     1.0
FORCE          4     340       0   1.0+5     0.0     0.0     1.0
FORCE          5     341       0   1.0+5     0.0     0.0     1.0
$
ENDDATA
