$$$$$$$$$$$$$$$$$$$$$$$$$$$$$$$$$$$$$$$$$$$$$$$$$$$$$$$$$$$$$$$$$$$$$$$$$$$$$$$$$$$$$$$
$
$ DESCRIPTION  - Test for DVTREL1 (Optimization): DMNCON with EXTC
$
$ SOLUTION     - 200
$
$$$$$$$$$$$$$$$$$$$$$$$$$$$$$$$$$$$$$$$$$$$$$$$$$$$$$$$$$$$$$$$$$$$$$$$$$$$$$$$$$$$$$$$
$
$
$*$$$$$$$$$$$$$$$$$$$$$$$$$$$$$$$$$$$
$*
$* FILE MANAGEMENT
$*
$*$$$$$$$$$$$$$$$$$$$$$$$$$$$$$$$$$$$
$*
$*
$*$$$$$$$$$$$$$$$$$$$$$$$$$$$$$$$$$$$
$*
$* EXECUTIVE CONTROL
$*
$*$$$$$$$$$$$$$$$$$$$$$$$$$$$$$$$$$$$
$*
SOL 200
CEND
$*
$*$$$$$$$$$$$$$$$$$$$$$$$$$$$$$$$$$$$
$*
$* CASE CONTROL
$*
$*$$$$$$$$$$$$$$$$$$$$$$$$$$$$$$$$$$$
$*
ECHO = NONE
SPC = 1
OUTPUT
SET 5 = 417, 421, 425, 429
DISPLACEMENT(PRINT,REAL) = 5
$
DESOBJ = 55
$
SUBCASE 1
ANALYSIS = STATICS
LOAD = 3
DESSUB = 51
$*
$*$$$$$$$$$$$$$$$$$$$$$$$$$$$$$$$$$$$
$*
$* BULK DATA
$*
$*$$$$$$$$$$$$$$$$$$$$$$$$$$$$$$$$$$$
$*
BEGIN BULK
$*
$* PARAM CARDS
$*
PARAM    NASPDV        1
PARAM      K6ROT   100.0
PARAM     OIBULK     YES
PARAM    OMACHPR     YES
PARAM       POST      -2
PARAM    POSTEXT     YES
PARAM    UNITSYS   MN-MM
$*
$
$23456781234567812345678123456781234567812345678123456781234567812345678
DRESP1        11     UX1    DISP                       3             417
DRESP1        12     UX2    DISP                       3             421
DRESP1        13     UX3    DISP                       3             425
DRESP1        14     UX4    DISP                       3             429
$
DOPTPRM, DESMAX, 21
$
DRESP1, 55, WT, WEIGHT
$
$
DCONSTR, 51, 11, , 0.29
DCONSTR, 51, 12, , 0.29
DCONSTR, 51, 13, , 0.29
DCONSTR, 51, 14, , 0.29
$
$
DMRLAW, 1, LINEAR
$
GROUP        222     Top Surf                                           +
+           ELEM       1    THRU     999
$23456781234567812345678123456781234567812345678123456781234567812345678
$
$
$ Turn off Checkerboarding Manufacturing Constraint
DMNCON, 1, CHBC, , , , , , , +
+,    -1.
$
DVTREL1, 99, , 222, , , , , , +D1
+D1, 1001
$
DMNCON, 75, EXTC, , , , , , , +MF1
+MF1, 0.0, 0.0, 1.0
$*
$
$* GRID CARDS
$*
GRID           1       0-31.6836-31.6925     0.0       0
GRID           2       0-23.6518-23.6585     0.0       0
GRID           3       023.6772623.68508     0.0       0
GRID           4       031.6473331.65603     0.0       0
GRID           5       0-12.8039-30.9206     0.0       0
GRID           6       0-17.1218-41.3496     0.0       0
GRID           7       06.6331-3-33.4628     0.0       0
GRID           8       07.0657-3-44.7393     0.0       0
GRID           9       012.81343-30.9095     0.0       0
GRID          10       017.12676-41.3257     0.0       0
GRID          11       023.66065-23.6513     0.0       0
GRID          12       031.63096-31.6213     0.0       0
GRID          13       030.89615-12.7944     0.0       0
GRID          14       041.30966-17.1061     0.0       0
GRID          15       033.421574.2644-3     0.0       0
GRID          16       044.693414.5188-3     0.0       0
GRID          17       030.85894 12.7889     0.0       0
GRID          18       041.2746417.10197     0.0       0
GRID          19       012.80636 30.9266     0.0       0
GRID          20       017.1186941.34287     0.0       0
$ ... 812 like lines cut
$*
$* ELEMENT CARDS
$*
$*  Mesh Collector: Solid(1)
$*  Mesh: 3d_mesh(1)
CHEXA         49       2       6       8       7       5      70      69+
+             93      92
CHEXA         50       2      70      69      93      92     102     101+
+            125     124
CHEXA         51       2     102     101     125     124     134     133+
+            157     156
CHEXA         52       2     134     133     157     156     166     165+
+            189     188
CHEXA         53       2     166     165     189     188     198     197+
+            221     220
CHEXA         54       2     198     197     221     220     230     229+
+            253     252
CHEXA         55       2     230     229     253     252     262     261+
+            285     284
CHEXA         56       2     262     261     285     284     294     293+
+            317     316
CHEXA         57       2     294     293     317     316     326     325+
+            349     348
CHEXA         58       2     326     325     349     348     358     357+
+            381     380
CHEXA         59       2     358     357     381     380     390     389+
+            413     412
CHEXA         60       2     390     389     413     412     422     421+
+            445     444
CHEXA         61       2       8      10       9       7      69      68+
+             94      93
CHEXA         62       2      69      68      94      93     101     100+
+            126     125
CHEXA         63       2     101     100     126     125     133     132+
+            158     157
CHEXA         64       2     133     132     158     157     165     164+
+            190     189
CHEXA         65       2     165     164     190     189     197     196+
+            222     221
CHEXA         66       2     197     196     222     221     229     228+
+            254     253
CHEXA         67       2     229     228     254     253     261     260+
+            286     285
CHEXA         68       2     261     260     286     285     293     292+
+            318     317
$ ... 1112 like lines cut
$*
$* PROPERTY CARDS
$*
$*  Property: PSOLID1
PSOLID         2       1       0                           SMECH
$*
$* MATERIAL CARDS
$*
$*  Material: AISI_Steel_1005
MAT1           1  2.0+05             .25 7.872-6  1.26-5
$*
$* LOAD AND CONSTRAINT CARDS
$*
$*  Constraint: Fixed(1)
SPC            1      33  123456     0.0
SPC            1      34  123456     0.0
SPC            1      35  123456     0.0
SPC            1      36  123456     0.0
SPC            1      37  123456     0.0
SPC            1      38  123456     0.0
SPC            1      39  123456     0.0
SPC            1      40  123456     0.0
SPC            1      41  123456     0.0
SPC            1      42  123456     0.0
SPC            1      43  123456     0.0
SPC            1      44  123456     0.0
SPC            1      45  123456     0.0
SPC            1      46  123456     0.0
SPC            1      47  123456     0.0
SPC            1      63  123456     0.0
$*  Constraint: Fixed(2)
SPC            2      48  123456     0.0
SPC            2      49  123456     0.0
SPC            2      50  123456     0.0
SPC            2      51  123456     0.0
SPC            2      52  123456     0.0
SPC            2      53  123456     0.0
SPC            2      54  123456     0.0
SPC            2      55  123456     0.0
SPC            2      56  123456     0.0
SPC            2      57  123456     0.0
SPC            2      58  123456     0.0
SPC            2      59  123456     0.0
SPC            2      60  123456     0.0
SPC            2      61  123456     0.0
SPC            2      62  123456     0.0
SPC            2      64  123456     0.0
SPCADD       100       1       2
$*  Load: Force(2)
FORCE          3     417       0 40000.0     0.0     0.0     1.0
FORCE          3     418       0 40000.0     0.0     0.0     1.0
FORCE          3     419       0 40000.0     0.0     0.0     1.0
FORCE          3     420       0 40000.0     0.0     0.0     1.0
FORCE          3     421       0 40000.0     0.0     0.0     1.0
FORCE          3     422       0 40000.0     0.0     0.0     1.0
FORCE          3     423       0 40000.0     0.0     0.0     1.0
FORCE          3     424       0 40000.0     0.0     0.0     1.0
FORCE          3     425       0 40000.0     0.0     0.0     1.0
FORCE          3     426       0 40000.0     0.0     0.0     1.0
FORCE          3     427       0 40000.0     0.0     0.0     1.0
FORCE          3     428       0 40000.0     0.0     0.0     1.0
FORCE          3     429       0 40000.0     0.0     0.0     1.0
FORCE          3     430       0 40000.0     0.0     0.0     1.0
FORCE          3     431       0 40000.0     0.0     0.0     1.0
FORCE          3     432       0 40000.0     0.0     0.0     1.0
$
ENDDATA 
