$ NASTRAN input file created by the Patran 2010 64-Bit input file
$ translator on July      06, 2010 at 17:59:04.
$ Direct Text Input for Nastran System Cell Section
$ Linear Static Analysis, Database
SOL 101
CEND
ECHO = NONE
SUBCASE 1
   TITLE=TRY WITH BOTH PSHELL AND PCOMP...
   SUBTITLE=DEFAULT
   SPC = 2
   LOAD = 5
   DISPLACEMENT(SORT1,REAL)=ALL
   SPCFORCES(SORT1,REAL)=ALL
   STRESS(SORT1,REAL,VONMISES,BILIN)=ALL
   STRAIN(SORT1,REAL,VONMISES,FIBER,BILIN)=ALL
BEGIN BULK
PARAM    POST    0 
PARAM    GRDPNT  0
PARAM   PRTMAXIM YES
PARAM   NOCOMPS  1
PARAM   WTMASS   0.00259
$
$ Elements and Element Properties for region : pcomp.801
$ Composite Property Record created from material record : pcomp.801
$ Composite Material Description :
PCOMP    801                    8100.    STRN                           +      A
+      A 801    .66405   0.      YES     801    .66405  45.      YES    +      B
+      B 801    .66405  -45.     YES     801    .66405   0.      YES
$ Pset: "pcomp.801" will be imported as: "pcomp.801"
CQUAD4   2       801     2       3       9       8       0.      0.
CQUAD4   3       801     3       4       10      9       0.      0.
CQUAD4   4       801     4       5       11      10      0.      0.
CQUAD4   6       801     7       8       14      13      0.      0.
CQUAD4   10      801     11      12      18      17      0.      0.
CQUAD4   11      801     13      14      20      19      0.      0.
CQUAD4   15      801     17      18      24      23      0.      0.
CQUAD4   16      801     19      20      26      25      0.      0.
CQUAD4   20      801     23      24      30      29      0.      0.
CQUAD4   22      801     26      27      33      32      0.      0.
CQUAD4   23      801     27      28      34      33      0.      0.
CQUAD4   24      801     28      29      35      34      0.      0.
$ Elements and Element Properties for region : pcomp.802
$ Composite Property Record created from material record : pcomp.802
$ Composite Material Description :
PCOMP    802                    8100.    STRN                           +      C
+      C 802    .66197   0.      YES     802    .66197  45.      YES    +      D
+      D 802    .66197  -45.     YES     802    .66197   0.      YES
$ Pset: "pcomp.802" will be imported as: "pcomp.802"
CQUAD4   7       802     8       9       15      14      0.      0.
CQUAD4   8       802     9       10      16      15      0.      0.
CQUAD4   9       802     10      11      17      16      0.      0.
CQUAD4   12      802     14      15      21      20      0.      0.
CQUAD4   13      802     15      16      22      21      0.      0.
CQUAD4   14      802     16      17      23      22      0.      0.
CQUAD4   17      802     20      21      27      26      0.      0.
CQUAD4   18      802     21      22      28      27      0.      0.
CQUAD4   19      802     22      23      29      28      0.      0.
PCOMP    803                    8100.    STRN                           +     CC
+     CC 803    .332725  0.      YES     803    .332725 45.      YES    +     DD
+     DD 803    .332725 -45.     YES     803    .332725  0.      YES
CQUAD4   1       803     1       2       8       7       0.      0.
CQUAD4   5       803     5       6       12      11      0.      0.
CQUAD4   21      803     25      26      32      31      0.      0.
CQUAD4   25      803     29      30      36      35      0.      0.
$ Referenced Material Records
$ Material Record : mat8.801
$ Description of Material :
MAT8     801    8.1E+6  8.1E+6  .06     700000. 700000. 700000. .055    +E1
+E1                             4.0E-3  4.0E-3  4.0E-3  4.0E-3  1.66E-2 +E2
+E2                     1.0
$
$ Material Record : mat8.802
$ Description of Material :
MAT8     802    8.1E+6  8.1E+6  .06     700000. 700000. 700000. .055    +     F1
+     F1                        4.0E-3  4.0E-3  4.0E-3  4.0E-3  1.66E-2 +     F2
+     F2                1.0
$ Material Record : mat8.803
$ Description of Material :
MAT8     803    8.1E+6  8.1E+6  .06     700000. 700000. 700000. .055    +     G1
+     G1                        4.0E-3  4.0E-3  4.0E-3  4.0E-3  1.66E-2 +     G2
+     G2                1.0
$ Nodes of the Entire Model
GRID     1               0.      0.      0.
GRID     2              .2       0.      0.
GRID     3              .4       0.      0.
GRID     4              .6       0.      0.
GRID     5              .8       0.      0.
GRID     6              1.       0.      0.
GRID     7               0.     .2       0.
GRID     8              .2      .2       0.
GRID     9              .4      .2       0.
GRID     10             .6      .2       0.
GRID     11             .8      .2       0.
GRID     12             1.      .2       0.
GRID     13              0.     .4       0.
GRID     14             .2      .4       0.
GRID     15             .4      .4       0.
GRID     16             .6      .4       0.
GRID     17             .8      .4       0.
GRID     18             1.      .4       0.
GRID     19              0.     .6       0.
GRID     20             .2      .6       0.
$ ... 16 like lines cut
$ Loads for Load Case : DEFAULT.SC1
SPCADD   2       1       3
LOAD     5      1.      1.       1
$ Displacement Constraints of Load Set : spc1.1
SPC1     1       123456  1       7       13      19      25      31
$ Displacement Constraints of Load Set : spc1.3
SPC1     3       6       2       3       4       5       6       8      +      G
+      G 9       10      11      12      14      15      16      17     +      H
+      H 18      20      21      22      23      24      26      27     +      I
+      I 28      29      30      32      33      34      35      36
$ Nodal Forces of Load Set : force.1
FORCE    1       6       0      10000.   0.      0.     -1.
FORCE    1       12      0      10000.   0.      0.     -1.
FORCE    1       18      0      10000.   0.      0.     -1.
FORCE    1       24      0      10000.   0.      0.     -1.
FORCE    1       30      0      10000.   0.      0.     -1.
FORCE    1       36      0      10000.   0.      0.     -1.
$ Referenced Coordinate Frames
ENDDATA d53e0f88
