$ NASTRAN input file created by the Patran 2010 64-Bit input file
$ translator on July      16, 2010 at 09:22:06.
$ Direct Text Input for Nastran System Cell Section
$ Linear Static Analysis, Non-database
SOL 101
CEND
ECHO = NONE
$ Subcase name : Default
   SUBTITLE=Default
   SPC = 2
   DISPLACEMENT(SORT1,REAL)=ALL
   SPCFORCES(SORT1,REAL)=ALL
   STRESS(SORT1,REAL,VONMISES,BILIN)=ALL
SUBCASE 1
   LOAD = 101
SUBCASE 2
   LOAD = 102
SUBCASE 3
   LOAD = 103
BEGIN BULK
PARAM    POST    0
$PARAM    WTMASS .00259
PARAM    GRDPNT  0
PARAM   PRTMAXIM YES
$ Elements and Element Properties for region : prod.1
PROD     1       5       1.0
CROD     49      1       1       13
CROD     50      1       2       14
CROD     51      1       3       15
CROD     52      1       4       16
CROD     53      1       5       17
CROD     54      1       6       18
CROD     55      1       7       19
CROD     56      1       8       20
CROD     57      1       9       21
CROD     58      1       10      22
CROD     59      1       11      23
CROD     60      1       12      24
$ Elements and Element Properties for region : prod.2
PROD     2       5       1.0
CROD     1       2       1       2
CROD     13      2       13      14
$ Elements and Element Properties for region : prod.3
PROD     3       5       1.0
CROD     2       3       2       3
CROD     14      3       14      15
$ Elements and Element Properties for region : prod.4
PROD     4       5       1.0
CROD     3       4       3       4
CROD     15      4       15      16
$ Elements and Element Properties for region : prod.5
PROD     5       5       1.0
CROD     4       5       4       5
CROD     16      5       16      17
$ Elements and Element Properties for region : prod.6
PROD     6       5       1.0
CROD     5       6       5       6
CROD     17      6       17      18
$ Elements and Element Properties for region : prod.7
PROD     7       5       1.0
CROD     6       7       6       7
CROD     18      7       18      19
$ Elements and Element Properties for region : prod.8
PROD     8       5       1.0
CROD     7       8       7       8
CROD     19      8       19      20
$ Elements and Element Properties for region : prod.9
PROD     9       5       1.0
CROD     8       9       8       9
CROD     20      9       20      21
$ Elements and Element Properties for region : prod.10
PROD     10      5       1.0
CROD     9       10      9       10
CROD     21      10      21      22
$ Elements and Element Properties for region : prod.11
PROD     11      5       1.0
CROD     10      11      10      11
CROD     22      11      22      23
$ Elements and Element Properties for region : prod.12
PROD     12      5       1.0
CROD     11      12      11      12
CROD     23      12      23      24
$ Elements and Element Properties for region : prod.13
PROD     13      5       1.0
CROD     12      13      12      1
CROD     24      13      24      13
$ Elements and Element Properties for region : prod.14
PROD     14      5       1.0
CROD     25      14      1       14
CROD     37      14      2       13
$ Elements and Element Properties for region : prod.15
PROD     15      5       1.0
CROD     26      15      2       15
CROD     38      15      3       14
$ Elements and Element Properties for region : prod.16
PROD     16      5       1.0
CROD     27      16      3       16
CROD     39      16      4       15
$ Elements and Element Properties for region : prod.17
PROD     17      5       1.0
CROD     28      17      4       17
CROD     40      17      5       16
$ Elements and Element Properties for region : prod.18
PROD     18      5       1.0
CROD     29      18      5       18
CROD     41      18      6       17
$ Elements and Element Properties for region : prod.19
PROD     19      5       1.0
CROD     30      19      6       19
CROD     42      19      7       18
$ Elements and Element Properties for region : prod.20
PROD     20      5       1.0
CROD     31      20      7       20
CROD     43      20      8       19
$ Elements and Element Properties for region : prod.21
PROD     21      5       1.0
CROD     32      21      8       21
CROD     44      21      9       20
$ Elements and Element Properties for region : prod.22
PROD     22      5       1.0
CROD     33      22      9       22
CROD     45      22      10      21
$ Elements and Element Properties for region : prod.23
PROD     23      5       1.0
CROD     34      23      10      23
CROD     46      23      11      22
$ Elements and Element Properties for region : prod.24
PROD     24      5       1.0
CROD     35      24      11      24
CROD     47      24      12      23
$ Elements and Element Properties for region : prod.25
PROD     25      5       1.0
CROD     36      25      12      13
CROD     48      25      24      1
$ Referenced Material Records
$ Material Record : mat1.5
$ Description of Material :
$2345678123456781234567812345678123456781234567812345678123456781234567812345678
MAT1     5      1.+7    3.8462+6.3      .1                              +RMC1
+RMC1   10000.  10000.  10000.
$ Nodes of the Entire Model
GRID     1              100.     0.      0.
GRID     2              86.602  50.      0.
GRID     3              50.     86.602   0.
GRID     4               0.     100.     0.
GRID     5              -50.    86.602   0.
GRID     6              -86.603 50.      0.
GRID     7              -100.    0.      0.
GRID     8              -86.602 -50.     0.
GRID     9              -50.    -86.603  0.
GRID     10              0.     -100.    0.
GRID     11             50.     -86.602  0.
GRID     12             86.602  -50.     0.
GRID     13             90.      0.      0.
GRID     14             77.942  45.      0.
GRID     15             45.     77.942   0.
GRID     16              0.     90.      0.
GRID     17             -45.    77.942   0.
GRID     18             -77.942 45.      0.
GRID     19             -90.     0.      0.
GRID     20             -77.942 -45.     0.
$ ... 4 like lines cut
$ Loads for Load Case : Default
SPCADD   2       11
$2345678123456781234567812345678123456781234567812345678123456781234567812345678
$LOAD     13     1.      1.      101     1.      102     1.      103
$ Displacement Constraints of Load Set : spc.11
SPC1     11      123456  10
SPC1     11      13456   16
$
$SPC1     11      3456    1
$SPC1     11      3456    2
$SPC1     11      3456    3
$SPC1     11      3456    4
$SPC1     11      3456    5
$SPC1     11      3456    6
$SPC1     11      3456    7
$SPC1     11      3456    8
$SPC1     11      3456    9
$SPC1     11      3456    11
$SPC1     11      3456    12
$SPC1     11      3456    13
$SPC1     11      3456    14
$SPC1     11      3456    15
$SPC1     11      3456    17
$SPC1     11      3456    18
$SPC1     11      3456    19
$SPC1     11      3456    20
$SPC1     11      3456    21
$SPC1     11      3456    22
$SPC1     11      3456    23
$SPC1     11      3456    24
$ Nodal Forces of Load Set : force.100
FORCE    101     1       0      10000.  -1.      0.      0.
FORCE    101     7       0       9000.  1.       0.      0.
$ Nodal Forces of Load Set : force.101
FORCE    102     15      0       8000.  -1.      0.      0.
FORCE    102     18      0       8000.  -1.      0.      0.
FORCE    102     15      0       3000.   0.      1.      0.
FORCE    102     18      0       3000.   0.      1.      0.
$ Nodal Forces of Load Set : force.102
FORCE    103     22      0      20000.  -1.      0.      0.
FORCE    103     22      0      10000.   0.      1.      0.
$ Referenced Coordinate Frames
ENDDATA de398af5
