ID MSC, D200OBUS $ SSP/SHZ V68.2 16-JAN-1995
TIME  30
SOL 200
cend
TITLE    = STATIC LOAD sizing sensitivity CODE CHECK PROBLEM   D200OBUS
SUBTITLE = MSC/67 VERSION sensitivity run
LABEL   = SOLUTION 200
ECHO    = BOTH
DISP    = ALL
ELFORCE = ALL
STRESS  = ALL
STRAIN  = ALL
SPC     = 12
analysis = STATICS
        SUBCASE 1
        SUBTITLE = STATIC LOAD
        LOAD = 1
        dessub = 10
        desobj = 1001
BEGIN BULK
PARAM,  BAILOUT,-1 $ CONTINUE IF BADLY CONDITIONED
PARAM,  LSTRN,  1
PARAM,  OPTEXIT,4
PARAM,  AUTOSPC,YES
DRESP1  1001    OBJECT  volume
CORD2C  1       0       3.0     -1.0    0.0     9.0     -1.0    0.0     +CORD2C
+CORD2C 9.0     0.0     -1.0
CORD2R  2       0       0.0     -2.0    0.0     1.011234-2.0    0.0     +CORD2R
+CORD2R 0.0     0.0     0.0
CORD2S  3       1       3.0     225.0   0.0     3.0     225.0   1.234567+CORD2S
+CORD2S 3.0     -45.0   3.0
MAT1    1       1.      .8      .1      .05     .001    100.    .01     +MAT11
+MAT11  2.0     3.0     4.0
MAT1    2       1.0E+7          0.3     .05     .001    100.0   .01     +MAT1-2
+MAT1-2 1000.   2000.   3000.
MAT8    3       1.E+7   1.E+7   .25     4.E+6   4.E+6   4.E+6   1.0     +MAT81
+MAT81  1.-6    2.-6            1.E-4           1.E-3           1.E-4   +MAT82
+MAT82                  1.0
SPCADD  12      1       2
SPCADD  13      1       3
deqatn  1       f(d) = d
deqatn  2       f(b,c) = b*c
dtable  L1      1.0     L2      0.1     L3      -0.2    L9      0.67
        L4      0.2     L5      0.05    L6      -0.05   L7      120.0
        L8      10.+2
CROD    101     101     101     102
GRID    101     0       0.0     0.0     0.0
GRID    102     0       1.0     0.0     0.0
SPC1    1       123456  101
SPC1    1       2356    102
FORCE1  1       102     1.0     101     102
MOMENT1 1       102     1.0     101     102
DAREA   12      102     1       1.0     102     4       1.0
dresp1  1       u1      disp                    1               102
dresp2  11      u1      1                                               +
+       dresp1  1
dconstr 10      11      0.1     0.1
CROD    107     101     107     108
GRID    107     3       2.23606863.4349545.0    3       123456
GRID    108     3       2.0     90.0    45.0    3       1346
FORCE1  1       108     1.0     107     108
MOMENT1 1       108     1.0     107     108
DAREA   12      108     3       1.0     108     6       1.0
dresp1  2       u2      disp                    2               108
dresp2  22      u2      1                                               +
+       dresp1  2
dconstr 10      22      0.1     0.1
PROD    101     1       1.0     2.0     0.1     0.5
desvar  2       parea1011.0     0.1     10.0
dvprel2 2       prod    101     4                       2
        desvar  2
        dtable  l1
CBEAM   200     200     201     202     0.      0.      1.
GRID    201     0       0.0     0.0     0.0
GRID    202     0       1.0     0.0     0.0
SPC1    1       23456   202
SPC1    1       123456  201
FORCE   1       202     0       1.0     1.0     0.0     0.0
DAREA   12      202     1       1.0
PBEAM   200     1       100.    1.+4    1.+4                            +PBEAM1
+PBEAM1 2.0     1.0                                                     +PBEAM2
+PBEAM2 YESA    1.0
desvar  61      parea200100.0   0.1     1000.0
dvprel1 61      pbeam   200     -8
        61      1.0
dresp1  9       u9      disp                    1               202
dresp2  91      u9      1                                               +
+       dresp1  9
dconstr 10      91      0.1     0.1
dresp1  413     stres13 stress  elem            4               200
dresp2  4131    stres13 1                                               +
+       dresp1  413
dconstr 10      4131    0.1     0.1
CTUBE   301     301     301     302
GRID    301     0       0.0     0.0     0.0
GRID    302     0       1.0     0.0     0.0
SPC1    1       123456  301
SPC1    1       2356    302
FORCE1  1       302     .282265 301     302
MOMENT1 1       302     .282265 301     302
DAREA   12      302     1       1.0     302     4       1.0
PTUBE   301     1       1.0     0.1     2.0
desvar  3       ptube   1.0     0.1     10.0
dvprel2 3       ptube   301     5                       2
        desvar  3
        dtable  l2
dresp1  3       u3      disp                    4               302
dresp2  31      u3      1                                               +
+       dresp1  3
dconstr 10      31      0.1     0.1
CSHEAR  401     401     401     402     403     404
GRID    401     0       0.0     0.0     0.0
GRID    402     0       1.0     0.0     0.0
GRID    403     0       1.0     1.0     0.0
GRID    404     0       0.0     1.0     0.0
SPC1    1       123456  401     404
SPC1    1       13456   402     403
FORCE   1       402     0       1.0     0.0     1.0     0.0
FORCE   1       403     0       1.0     0.0     1.0     0.0
DAREA   12      402     2       1.0     403     2       1.0
PSHEAR, 401     1       1.0     0.5, 1.,30.$ F1,F2 ADDED MSC/61 MG JUL80
desvar  4       pshear  1.0     0.1     10.0
dvprel2 4       pshear  401     4                       2
        desvar  4
        dtable  l1
dresp1  4       u4      disp                    2               402
dresp2  41      u4      1                                               +
+       dresp1  4
dconstr 10      41      0.1     0.1
CONROD  1001    1001    1002    1       1.0     1.0     1.0     0.5
GRID    1001    0       0.0     0.0     0.0
GRID    1002    0       1.0     0.0     0.0
SPC1    1       123456  1001
SPC1    1       2356    1002
FORCE1  1       1002    1.0     1001    1002
MOMENT1 1       1002    1.0     1001    1002
DAREA   12      1002    1       1.0     1002    4       1.0
CONROD  1007    1007    1008    1       1.0     1.0     1.0     0.5
GRID    1007    3       2.23636863.4349545.0    3       123456
GRID    1008    3       2.0     90.0    45.0    3       1346
FORCE1  1       1008     1.0    1007    1008
MOMENT1 1       1008     1.0    1007    1008
DAREA   12      1008    2        1.0    1008    5        1.0
CELAS1  1101    1101    1101    0       1102
SPOINT  1101    1102
SPC1    1       0       1101
SLOAD   1       1102    1.0
DAREA   12      1102    0       1.0
PELAS   1101    1.0     0.5     0.1
desvar  51      ps1101  1.0     0.1     10.0
dvprel2 51      pelas   1101    5                       2
        desvar  51
        dtable  l2
CELAS2  1201    1.0     1201    0       1202    0       0.5     1.0
SPOINT  1201    1202
SPC1    1       0       1201
SLOAD   1       1202    1.0
DAREA   12      1202    0       1.0
CELAS3  1301    1301    0       1302
SLOAD   1       1302    1.0
DAREA   12      1302    0       1.0
PELAS   1301    1.0     0.5     0.1
desvar  6       ps1301  1.0     0.1     10.0
dvprel2 6       pelas   1301    5                       2
        desvar  6
        dtable  l2
CELAS4  1401    1.0     0       1402
SLOAD   1       1402    1.0
DAREA   12      1402    0       1.0
CDAMP1  2001    2001    2001    0       2002    0
SPOINT  2001    2002
SPC     1       2002    0       0.0
SPC1    1       0       2001
SLOAD   1       2002    1.0
DAREA   12      2002    0       1.0
PDAMP   2001    1.0
CDAMP2  2101    1.0     2101    0       2102    0
SPOINT  2101    2102
SPC     1       2102    0       0.0
SPC1    1       0       2101
SLOAD   1       2102    1.0
DAREA   12      2102    0       1.0
CDAMP3  2201    2201    0       2202
SPC     1       2202    0       0.0
SLOAD   1       2202    1.0
DAREA   12      2202    0       1.0
PDAMP   2201    1.0
CDAMP4  2301    1.0     0       2302
SPC     1       2302    0       0.0
SLOAD   1       2302    1.0
DAREA   12      2302    0       1.0
CVISC   2401    2401    2401    2402
GRID    2401    0       0.0     0.0     0.0
GRID    2402    0       1.0     0.0     0.0
SPC     1       2402    123456  0.0
SPC1    1       123456  2401
FORCE1  1       2402    1.0     2401    2402
DAREA   12      2402    1       1.0
CVISC   2407    2401    2407    2408
GRID    2407    3       2.0     90.0    45.0    3       123456
GRID    2408    3       2.23606863.43495 45.0   3       123456
FORCE   1       2408    2       1.0     0.0     0.0     1.0
DAREA   12      2407    2       -1.0
PVISC   2401    1.0     2.0
CMASS1  2501    2501    2501    0       2502    0
SPOINT  2501    2502
SPC     1       2502    0       0.0
SPC1    1       0       2501
SLOAD   1       2502    1.0
DAREA   12      2502    0       1.0
CMASS1  2507    2501    2507    1       2508    1
GRID    2507    3       1.0     90.0    45.0    3       123456
GRID    2508    3       2.0     90.0    45.0    3       123456
PMASS   2501    1.0
CMASS2  2601    1.0     2601    0       2602    0
SPOINT  2601    2602
SPC     1       2602    0       0.0
SPC1    1       0       2601
SLOAD   1       2602    1.0
DAREA   12      2602    0       1.0
CMASS2  2607    1.0     2607    1       2608    1
GRID    2607    3       1.0     90.0    45.0    3       123456
GRID    2608    3       2.0     90.0    45.0    3       123456
CMASS3  2701    2701    0       2702
SPC     1       2702    0       0.0
SLOAD   1       2702    1.0
DAREA   12      2702    0       1.0
PMASS   2701    1.0
CMASS4  2801    1.0     0       2802
SPC     1       2802    0       0.0
SLOAD   1       2802    1.0
DAREA   12      2802    0       1.0
CONM1   2901    2901    0       1.0     1.0     1.0     1.0     1.0     +CONM11
+CONM11 1.0     1.0     1.0     1.0     1.0     1.0     1.0     1.0     +CONM12
+CONM12 1.0     1.0     1.0     1.0     1.0     1.0     1.0     1.0
GRID    2901    0       0.0     0.0     0.0
SPC     1       2901    123456  0.0
CONM1   2904    2904    3       1.1     2.1     2.2     3.1     3.2     +CONM1+1
+CONM1+13.3     4.1     4.2     4.3     4.4     5.1     5.2     5.3     +CONM1+2
+CONM1+25.4     5.5     6.1     6.2     6.3     6.4     6.5     6.6
GRID    2904    3       1.0     90.0    45.0    3       123456
CONM2   3001    3001    0       1.0     1.0     1.0     1.0             +CONM21
+CONM21 1.0     1.0     1.0     1.0     1.0     1.0
GRID    3001    0       0.0     0.0     0.0
SPC     1       3001    123456  0.0
CONM2   3004    3004    3       1.0     1.0     1.1     1.2             +CONM2+1
+CONM2+11.0     1.0     1.0     1.0     1.0     1.0
GRID    3004    3       1.0     90.0    45.0    3       123456
GRID    3101    0       0.0     5.0                     123456
GRID    3102            0.0     8.0                     123456
GRID    3103            2.0     5.0                     123456
PLOTEL  3101    3101    3102            3102    3102    3103
CQUAD4  3301    3301    3301    3302    3303    3304    0.
GRID    3301    0       0.0     0.0     0.0
GRID    3302    0       1.0     0.0     0.0
GRID    3303    0       1.0     1.0     0.0
GRID    3304    0       0.0     1.0     0.0
SPC1    1       1256    3302    3303
SPC1    1       123456  3301    3304
FORCE   1       3302    0       1.0     0.0     0.0     1.0
FORCE   1       3303    0       1.0     0.0     0.0     1.0
DAREA   12      3302    3       1.0     3303    3       1.0
PSHELL  3301    1       1.0     1       120.0   1       1.0     0.5     +QUAD41
+QUAD41 0.2     -0.3
desvar  20      psh3301 1.0     0.1     10.0
dvprel2 20      pshell  3301    4                       2
        desvar  20
        dtable  l1
dresp1  10      u10     disp                    3               3302
dresp2  101     u10     1                                               +
+       dresp1  10
dconstr 10      101     0.1     0.1
CQUAD4  3313    3313    3313    3314    3315    3316    382.5           +QUAD42
+QUAD42                 .63     .67             .53
GRID    3313    3       3.0     90.     0.      3       123456
GRID    3314    3       3.0     90.     60.     2       123456
GRID    3315    3       3.0     40.     60.     1       4
GRID    3316    3       3.0     30.     0.      0       5
FORCE   1       3315    2       3.14159 0.      2.71828 0.
DAREA   12      3315    3       1.73205
PSHELL  3313    1       .618034 2               1               .30103  +QUAD43
+QUAD43 0.
CQUAD4  3321    3321    3321    3322    3323    3324    0.
GRID    3321    0       0.0     0.0     0.0             13456
GRID    3322    0       10.0    0.0                     6
GRID    3323    0       10.0    10.0    0.0             6
GRID    3324    0       0.0     10.0    0.0             123456
FORCE   1       3322    0       1.+3    1.0     0.0     1.0
FORCE   1       3323    0       1.+3    1.0     0.0     1.0
DAREA   12      3322    3       1.0     3323    3       1.0
PCOMP   3321                    1.      STRN                            +QUAD4C
+QUAD4C 3       0.5     0.      YES     3       0.5     0.      YES
desvar  8       pt13321 1.0     0.1     10.0
dvprel1 8       pcomp   3321    13
        8       0.5
dvprel2 9       pcomp   3321    3                       8
        desvar  8
deqatn  8       f(a)=-0.25*(a+1.0)
dresp1  5       u5      disp                    3               3322
dresp2  51      u5      1                                               +
+       dresp1  5
dconstr 10      51      0.1     0.1
dresp1  302     comp2   cfailureelem            5               3321
dresp2  3021    comp2   1                                               +
+       dresp1  302
dconstr 10      3021    0.1     0.1
dresp1  303     comp3   cfailureelem            7               3321
dresp2  3031    comp3   1                                               +
+       dresp1  303
dconstr 10      3031    0.1     0.1
dresp1  301     comp1   cstrain elem            3               3321
dresp2  3011    comp1   1                                               +
+       dresp1  301
dconstr 10      3011    0.1     0.1
dresp1  201     strn1   strain  elem            11              3321
dresp2  2011    strn1   1                                               +
+       dresp1  201
dconstr 10      2011    0.1     0.1
CBAR    3401    3401    3401    3402    0.0     0.0     1.0             +CBAR1
+CBAR1  0       0       1.0     1.0     1.0     1.0     1.0     1.0
GRID    3401    0       0.0     0.0     0.0
GRID    3402    0       1.0     0.0     0.0
SPC1    1       23456   3402
SPC1    1       123456  3401
FORCE1  1       3402    1.0     3401    3402
PLOAD1  1       3401    FX      LE      1.      1.
DAREA   12      3402    1       1.0
PBAR    3401    1       1.0     10.0    20.0    5.0     0.5             +PBAR1
+PBAR1  0.1     0.1     0.1     0.1     0.1     0.1     0.1     0.1     +PBAR2
+PBAR2  0.8     0.8     9.5
desvar  17      par3401 1.0     0.1     10.0
dvprel2 17      pbar    3401    4                       2
        desvar  17
        dtable  l1
dresp1  12      u12     disp                    1               3402
dresp2  121     u12     1                                               +
+       dresp1  12
dconstr 10      121     0.1     0.1
CBAR    3403    3403    3403    3404    3405                    2       +CBAR3
+CBAR3  0       0       1.0     1.0     1.0     -1.0    -1.0    -1.0
GRID    3403    0       0.0     0.0     0.0
GRID    3404    0       0.0     1.0     0.0
GRID    3405    0       1.0     0.0     0.0     0       123456
SPC1    1       2       3404
SPC1    1       123456  3403
FORCE   1       3404    0       1.0     1.0     0.0     1.0
MOMENT2 1       3404    1.0     3403    3404    3403    3405
DAREA   12      3404    1       1.0     3404    3       1.0
DAREA   12      3404    6       -1.0
CBAR    3410    3403    3410    3411    -1.0    0.0     0.0     1       +CBAR10
+CBAR10 0       0       1.0     1.414214-1.0    0.0     1.0     0.0
GRID    3410    3       1.0     90.0    45.0    3       123456
GRID    3411    3       1.41421445.0    45.0    3
FORCE   1       3411    3       1.0     0.0     1.414214 1.0
DAREA   12      3411    2       1.414214 3411   3       1.0
PBAR    3403    1       1.0     10.0    20.0    5.0     0.5             +PBAR3
+PBAR3  0.1     0.1     -0.1    -0.1    0.2     0.2     -0.2    -0.2    +PBAR4
+PBAR4  100.0   200.0   12.0
desvar  10      pf23403 1.0     0.1     10.0
dvprel2 10      pbar    3403    19                      2
        desvar  10
        dtable  l3
CTETRA  3901    3901    3901    3902    3903    3904
GRID    3901    0       0.0     0.0     0.0     0       456
GRID    3902    0       2.0     0.0     0.0     0       456
GRID    3903    0       1.0     1.7320510.0     0       1456            6/20/72
GRID    3904    0       1.0     .5773503+1.0    0       456
PSOLID  3901    1
SPC1    1       3       3901    3902    3903
SPC1    1       12      3904
FORCE   1       3904    0       1.0     0.0     0.0     1.0
DAREA   12      3904    3       1.0
CTRIAX6 5301    1       5301    5302    5303    5304    5305    5306    +TRIAX61
+TRIAX6130.0
GRID    5301    0       6.0     0.0     0.0     0       2456
GRID    5302    0       6.0     0.0     2.0     0       2456
GRID    5303    0       6.0     0.0     4.0     0       2456
GRID    5304    0       4.238   0.0     3.0     0       2456
GRID    5305    0       2.536   0.0     2.0     0       2456
GRID    5306    0       4.238   0.0     1.0     0       2456
SPC1    1       3       5302
PLOADX  1       .0222139.03332095301    5302    5303
CTRIAX6 5311    1       5311    5312    5313    5314    5315            +TRIAX62
+TRIAX6230.0
GRID    5311    0       6.0     0.0     0.0     0       2456
GRID    5312    0       6.0     0.0     2.0     0       2456
GRID    5313    0       6.0     0.0     4.0     0       2456
GRID    5314    0       3.402   0.0     3.5     0       2456
GRID    5315    0       2.536   0.0     2.0     0       2456
SPC1    1       3       5312
PLOADX1 1       5311    .0222139.03332095311    5313
CQUAD8  6401    6401    6401    6402    6403    6404    6405    6406    +Q81
+Q81    6407    6408
GRID    6401    0       0.0     0.0     0.0
GRID    6402    0       1.0     0.0     0.0
GRID    6403    0       1.0     1.0     0.0
GRID    6404    0       0.0     1.0     0.0
GRID    6405    0       0.5     0.0     0.0
GRID    6406    0       1.0     0.5     0.0
GRID    6407    0       0.5     1.0     0.0
GRID    6408    0       0.0     0.5     0.0
SPC1    1       1256    6402    6403
SPC1    1       123456  6401    6408    6404
SPC1    1       6       6405    6406    6407
FORCE   1       6402    0       1.0     0.0     0.0     1.0
FORCE   1       6406    0       1.0     0.0     0.0     1.0
FORCE   1       6403    0       1.0     0.0     0.0     1.0
DAREA   12      6402    3       1.0     6403    3       1.0
PSHELL  6401    1       1.0     1       120.    1       1.0     0.5     +QUAD81
+QUAD81 0.2     -0.3
desvar  11      pz16401 1.0     0.1     10.0
dvprel2 11      pshell  6401    12                      2
        desvar  11
        dtable  l4
CQUAD8  6413    6413    6413    6414    6415    6416    6417    6418    +Q82
+Q82    6419    6420    .63     .67             .53     382.5
GRID    6413    3       3.0     90.     0.      3       123456
GRID    6414    3       3.0     90.     60.     2       123456
GRID    6415    3       3.0     40.     60.     1       4
GRID    6416    3       3.0     30.     0.      0       5
GRID    6417    3       3.0     90.     30.     3       123456
GRID    6418    3       3.0     65.     60.     1       4
GRID    6419    3       3.0     35.     30.     0       5
GRID    6420    3       3.0     60.     0.      0       5
FORCE   1       6415    2       3.14159 0.      2.71828 0.
DAREA   12      6415    3       1.73205
PSHELL  6413    1       .618034 2               1                       +QUAD83
+QUAD83 0.
desvar  12      pz16413 1.0     0.1     10.0
dvprel2 12      pshell  6413    12                      2
        desvar  12
        dtable  l2
CHEXA   6701    6701    6701    6702    6703    6704    6705    6706    +C6701
+C6701  6707    6708
GRID    6701    0       0.0     0.0     0.      0       456
GRID    6702    0       0.0     .08     0.      0       456
GRID    6703    0       0.0     .08     .1      0       456
GRID    6704    0       0.0     0.      .1      0       456
GRID    6705    0       1.0     0.      0.      0       456
GRID    6706    0       1.0     .08     0.      0       456
GRID    6707    0       1.0     .08     .1      0       456
GRID    6708    0       1.0     0.      .1      0       456
PSOLID  6701    2       0       2
SPC1    1       123     6701    THRU    6704
FORCE   1       6705    0       .25     0.      0.      -1.
FORCE   1       6706    0       .25     0.      0.      -1.
FORCE   1       6707    0       .25     0.      0.      -1.
FORCE   1       6708    0       .25     0.      0.      -1.
PLOAD4  1       6701    -125.                           6701    6703
CPENTA  6801    6801    6801    6802    6803    6804    6805    6806
GRID    6801            .1      .1      -1.             456
GRID    6802            .1      -.1     -1.             456
GRID    6803            -.1     0.      -1.             456
GRID    6804            .1      .1      1.              456
GRID    6805            .1      -.1     1.              456
GRID    6806            -.1     0.      1.              456
SPC1    1       123     6801    6802    6803
FORCE   1       6804    0       .3333   0.      0.      1.
FORCE   1       6805    0       .3333   0.      0.      1.
FORCE   1       6806    0       .3333   0.      0.      1.
PSOLID  6801    2       0       2
PLOAD4  1       6801    110.                            6801    6805
DAREA   12      6804    1       1.0
CBEND   6901    6901    6901    6902    .5      1.+6            1
GRID    6901            0.      0.      0.
GRID    6902            1.      0.      0.
SPC1    1       123456  6902
PLOAD1  1       6901    FY      FR      0.      1.      1.      1.
PLOAD1  1       6901    FZ      FR      0.      1.      1.      1.
PBEND   6901    2       .1      .01     .01     .02                     +PB691
+PB691  .05     .05     .05     -.05
DAREA   12      6901    2       1.0
CBEND   6911    6911    6911    6912    1.      0.      0.      3
GRID    6911            0.      0.      0.              123456
GRID    6912            1.      1.      0.
FORCE   1       6912    0       1.      0.      1.      1.
FORCE   1       6912    0       1.      1.      0.      0.
PBEND   6911    2       2       .1      .05     100.    1.
DAREA   12      6912    1       1.0
CTRIAR  7051    7051    7051    7052    7053    0.0
GRID    7051    0       0.0     0.0     0.0
GRID    7052    0       1.0     0.0     0.0
GRID    7053    0       0.5     1.0     0.0
SPC1    1       6       7053
SPC1    1       12345   7051    7052
FORCE2  1       7053    1.0     7051    7052    7052    7053
DAREA   12      7053    3       1.0
dresp1  6       u6      disp                    4               7053
dresp2  61      u6      1                                               +
+       dresp1  6
dconstr 10      61      0.1     0.1
dresp1  205     strn5   strain  elem            19              7051
dresp2  2051    strn5   1                                               +
+       dresp1  205
dconstr 10      2051    0.1     0.1
CTRIAR  7060    7051    7060    7061    7062    0.0
GRID    7060    3       1.0     90.     45.     3       12345
GRID    7061    3       1.41421445.     45.     3       12345
GRID    7062    3       2.06155375.9637645.     3       6
FORCE2  1       7062    1.0     7060    7061    7060    7062
DAREA   12      7062    3       1.0
PSHELL  7051    1       .1      1       10.+2   1       1.0
desvar  16      pt7051  1.0     0.1     10.0
dvprel2 16      pshell  7051    4                       2
        desvar  16
        dtable  l2
dvprel2 116     pshell  7051    12                      2
        desvar  16
        dtable  l5
dvprel2 216     pshell  7051    13                      2
        desvar  16
        dtable  l6
CTRIA3  7451    7451    7451    7452    7453    0.0
GRID    7451    0       0.0     0.0     0.0
GRID    7452    0       1.0     0.0     0.0
GRID    7453    0       0.5     1.0     0.0
SPC1    1       6       7453
SPC1    1       123456  7451    7452
FORCE2  1       7453    1.0     7451    7452    7452    7453
DAREA   12      7453    3       1.0
dresp1  7       u7      disp                    3               7453
dresp2  71      u7      1                                               +
+       dresp1  7
dconstr 10      71      0.1     0.1
CTRIA3  7460    7451    7460    7461    7462    0.0
GRID    7460    3       1.0     90.     45.     3       123456
GRID    7461    3       1.41421445.     45.     3       123456
GRID    7462    3       2.06155375.9637645.     3       6
FORCE2  1       7462    1.0     7460    7461    7460    7462
DAREA   12      7462    3       1.0
dresp1  202     strn2   strain  elem            12              7460
dresp2  2021    strn2   1                                               +
+       dresp1  202
dconstr 10      2021    0.1     0.1
PSHELL  7451    1       .1      1       10.+2   1       1.0
desvar  13      pi7451  1.0     0.1     10.0
dvprel2 13      pshell  7451    6                       2
        desvar  13
        dtable  l8
CTRIA6  7501    7501    7501    7502    7503    7504    7505    7506
GRID    7501    0       0.0     0.0     0.0
GRID    7502    0       1.0     0.0     0.0
GRID    7503    0       0.0     1.0     0.0
GRID    7504    0       0.5     0.0     0.0
GRID    7505    0       0.5     0.5     0.0
GRID    7506    0       0.0     0.5     0.0
SPC1    1       123456  7501    7506    7503
SPC1    1       1246    7502
SPC1    1       6       7505    7504
FORCE   1       7502    0       1.0     0.      0.0     1.0
DAREA   12      7502    3       1.0
PSHELL  7501    1       .1      1       10.+2   1       1.0
desvar  14      pt7501  1.0     0.1     10.0
dvprel2 14      pshell  7501    4                       2
        desvar  14
        dtable  l2
dvprel2 114     pshell  7501    12                      2
        desvar  14
        dtable  l5
dvprel2 214     pshell  7501    13                      2
        desvar  14
        dtable  l6
dresp1  203     strn3   strain  elem            13              7501
dresp2  2031    strn3   1                                               +
+       dresp1  203
dconstr 10      2031    0.1     0.1
dresp1  204     strn4   strain  elem            70              7501
dresp2  2041    strn4   1                                               +
+       dresp1  204
dconstr 10      2041    0.1     0.1
CQUADR  9901    9901    9901    9902    9903    9904    0.
GRID    9901    0       0.0     0.0     0.0
GRID    9902    0       1.0     0.0     0.0
GRID    9903    0       1.0     1.0     0.0
GRID    9904    0       0.0     1.0     0.0
SPC1    1       125     9902    9903
SPC1    1       12345   9901    9904
FORCE   1       9902    0       1.0     0.0     0.0     1.0
FORCE   1       9903    0       1.0     0.0     0.0     1.0
DAREA   12      9902    3       1.0     9903    3       1.0
PSHELL  9901    1       1.0     1       120.0   1       1.0     0.5     +QUADR1
+QUADR1 0.2     -0.3
desvar  15      pi9901  1.0     0.1     10.0
dvprel2 15      pshell  9901    6                       2
        desvar  15
        dtable  l7
dresp1  8       u8      disp                    3               9903
dresp2  81      u8      1                                               +
+       dresp1  8
dconstr 10      81      0.1     0.1
CQUADR  9913    9913    9913    9914    9915    9916    382.5           +QUADR2
+QUADR2                 .63     .67             .53
GRID    9913    3       3.0     90.     0.      3       123456
GRID    9914    3       3.0     90.     60.     2       123456
GRID    9915    3       3.0     40.     60.     1       4
GRID    9916    3       3.0     30.     0.      0       5
FORCE   1       9915    2       3.14159 0.      2.71828 0.
DAREA   12      9915    3       1.73205
PSHELL  9913    1       .67     2               1               .30103  +QUADR3
+QUADR3 0.
desvar  18      pt9913  1.0     0.1     10.0
dvprel2 18      pshell  9913    4                       2
        desvar  18
        dtable  l9
GENEL   1               7702    1       7702    2       7702    3       +C10
+C10    7702    4       7702    5       7702    6                       +C11
+C11    UD              7701    1       7701    2       7701    3       +C12
+C12    7701    4       7701    5       7701    6                       +C13
+C13    Z       2.4825-40.0     -6.696-50.0     -1.021-50.0     1.0467-3+C14
+C14    0.0     5.3485-50.0     5.7754-52.2291-50.0     2.4784-60.0     +C15
+C15    2.9134-60.0     3.4608-64.5557-70.0     5.0275-6
FORCE   1       7702    0       1.0     1.0
GRID    7701            206.5   +93.0   137.5           123456
GRID    7702            190.0   +93.0   99.8
FORCE   1       7702    0       1.0     1.0
GRID    10000
GRID    10001                                           3
DMIG    MATK    0       6       2       0
DMIG    MATK    10000   3               10000   3       1.D6            +
        10001   3       -1.D6
DMIG    MATK    10001   3               10001   3       1.D6
DMIG    MATLOAD 0       9       1       0
DMIG*   MATLOAD         1                                               +DMIG
*DMIG   10000           3               1.
RBAR    10101   10101   10102   234     123
GRID    10101   2       1.0     2.0     3.0     2       234
GRID    10102   2       4.0     6.0     15.0    2       123
FORCE   1       10101   2       1.0     1.0
RBE1    10201   10201   234     10202   123                             +R10201
+R10201 UM      10201   156     10202   456
GRID    10201           1.0     2.0     3.0             234
GRID    10202           4.0     6.0     15.0            123
FORCE   1       10201           1.0     1.0
RBE2    10301   10301   123456  10302
FORCE   1       10302           1.0     1.0
GRID    10302           4.0     6.0     15.0            0
GRID    10301           1.0     2.0     3.0             213456
RROD    10401   10401   10402   1
GRID    10401           0.0     0.0     0.0             23456
GRID    10402           1.0     0.0     0.0             123456
FORCE   1       10401           1.0     1.0
RTRPLT  10501   10501   10502   10503   234             123             +R10501
+R10501 156     123456  456
GRID    10501           1.0     2.0     3.0             234
GRID    10502           4.0     6.0     15.0
GRID    10503           7.0     10.0    27.0            123
FORCE   1       10501           1.      1.
RBE3    10601           10605   123456  2.      123     10601           +R10601A
+R10601A2.      12      10602                                           +R10601B
+R10601B1.      12      10603                                           +R10601C
+R10601C1.      1       10604   2.      2       10604                   +R10601D
+R10601D1.      3       10602   10603   10604
GRID    10601           0.      0.      -3.
GRID    10602           0.      4.      0.
GRID    10603           0.      0.      3.
GRID    10604           0.      -4.     0.
GRID    10605           0.      0.      0.
FORCE   1       10605           1.0     1.0
MOMENT  1       10605           1.0     1.0
SPC1    1       123456  10601   10602   10603   10604
SPC1    3       123456  10605
RBE3    10611           10614   123     .001    123     10611   10612   +R10611A
+R10611A10613                                                           +R10611B
+R10611BUM      10611   123
GRID    10611   2       0.      0.      -3.     2
GRID    10612   2       0.      2.59808 1.5     2
GRID    10613   2       0.      -2.598081.5     2
GRID    10614   2       0.      0.      0.      2
FORCE   1       10611   2       1.      1.
SPC1    1       123456  10612   10613   10614
SPC1    1       456     10611
SPC1    3       123     10611
doptprm delx    0.5
PARAM,POST,-1
ENDDATA
