SOL 101

CEND
DISP(PLOT,PRINT) = ALL
SPCFORCES(PLOT,PRINT) = ALL
STRESS(PLOT,PRINT) = ALL
SPC = 42
SUBCASE 1
    LOAD = 1
SUBCASE 2
    LOAD = 2
$SUBCASE 3
$    LOAD = 3
$SUBCASE 4
$    LOAD = 4
$SUBCASE 5
$    LOAD = 5
$SUBCASE 6
$    LOAD = 6
$SUBCASE 7
$    LOAD = 7
$SUBCASE 8
$    LOAD = 8
$SUBCASE 9
$    LOAD = 9
$SUBCASE 10
$    LOAD = 10
$SUBCASE 11
$    LOAD = 11
$SUBCASE 12
$    LOAD = 12
BEGIN BULK
PARAM,POST,-1
SPC1,42,123456,21,22,23
SPC1,42,456,24

SPC1,42,456,25,26,27
SPC1,42,456,28,29,30

GRID, 21, 0, 0., 0., 0.
GRID, 22, 0, 1., 0., 0.
GRID, 23, 0, 0., 1., 0.
GRID, 24, 0, 0., 0., 1.

GRID, 25, 0, 0.5, 0., 0.
GRID, 26, 0, 0.5, 0.5, 0.
GRID, 27, 0, 0., 0.5, 0.

$1-4
GRID, 28,  0, 0., 0., 0.5
$2-4
GRID, 29,  0, 0.5, 0., 0.5
$3-4
GRID, 30, 0, 0., 0.5, 0.5

$             n1, n2, n3, n4, n5, n6
CTETRA, 9, 1, 21, 22, 23, 24, 25, 26
$,n7,n8, n9, n10
,27, 28, 29, 30

$ 1-2-3
PLOAD4, 1, 9, 1.0, , , , 21, 24
PLOAD4, 2, 9, 1.0, , , , 22, 24
PLOAD4, 3, 9, 1.0, , , , 23, 24

$ 2-3-4
PLOAD4, 4, 9, 1.0, , , , 22,21
PLOAD4, 5, 9, 1.0, , , , 23,21
PLOAD4, 6, 9, 1.0, , , , 24,21

$ 3-1-4
PLOAD4, 7, 9, 1.0, , , , 23,22
PLOAD4, 8, 9, 1.0, , , ,21,22
PLOAD4, 9, 9, 1.0, , , , 24,22

$ 1-3-4
PLOAD4, 10, 9, 1.0, , , , 21,22
PLOAD4, 11, 9, 1.0, , , , 23,22
PLOAD4, 12, 9, 1.0, , , , 24,22

PSOLID, 1, 1
MAT1, 1, 3.0e7,,0.3

ENDDATA
