SOL 101
CEND
DISP(PLOT,SORT1,REAL)=ALL
STRESS(PLOT,SORT1,REAL)=ALL
FORCE(PLOT,SORT1,REAL)=ALL
SPCFORCES(PLOT,SORT1,REAL)=ALL
SPC = 10
SUBCASE 1
    LOAD = 100
SUBCASE 2
    LOAD = 200
SUBCASE 3
    LOAD = 300
SUBCASE 4
    LOAD = 400
SUBCASE 5
    LOAD = 500
SUBCASE 6
    LOAD = 600
SUBCASE 7
    LOAD = 700
SUBCASE 8
    LOAD = 800
SUBCASE 9
    LOAD = 900
BEGIN BULK
PARAM,POST,-1
GRID,1,,1.0,0.0,0.0
GRID,2,,2.0,1.0,0.0
CBAR,3,,1,2,1.0,1.0,1.0
PBAR,3,4,1.0,2.0,3.0,4.0,5.0
MAT1,4,3.0e7,,0.3
SPC,10,1,123456
PLOAD1,100,3,FX,FR,0.5,10.
PLOAD1,200,3,FY,FR,0.5,10.
PLOAD1,300,3,FZ,FR,0.5,10.

PLOAD1,400,3,MX,FR,0.5,3.
PLOAD1,500,3,MY,FR,0.5,3.
PLOAD1,600,3,MZ,FR,0.5,3.

PLOAD1,700,3,MX,FR,0.5,10.,1.0
PLOAD1,800,3,MY,FR,0.5,10.,1.0
PLOAD1,900,3,MZ,FR,0.5,10.,1.0

