$TITLE   = MSC.NASTRAN JOB                                                     1
$SUBTITLE=LC_00                                                                2
$LABEL   =                                                                     3
$DISPLACEMENTS                                                                 4
$REAL OUTPUT                                                                   5
$SUBCASE ID =           1                                                      6
         1       G     -1.646174E-05      3.682724E-05      0.000000E+00       7
-CONT-                  0.000000E+00      0.000000E+00     -1.752602E-05       8
         2       G      1.618536E-05      3.682932E-05      0.000000E+00       9
-CONT-                  0.000000E+00      0.000000E+00      1.691708E-05      10
         3       G     -9.155661E-06      4.017732E-08      0.000000E+00      11
-CONT-                  0.000000E+00      0.000000E+00      1.139579E-06      12
         4       G      8.891079E-06      0.000000E+00      0.000000E+00      13
-CONT-                  0.000000E+00      0.000000E+00      0.000000E+00      14
         5       G     -1.548853E-05      5.580988E-05      0.000000E+00      15
-CONT-                  0.000000E+00      0.000000E+00     -1.322619E-05      16
         6       G      1.572481E-05      3.692226E-05      0.000000E+00      17
-CONT-                  0.000000E+00      0.000000E+00      2.322337E-05      18
         7       G      1.509255E-05      3.704378E-05      0.000000E+00      19
-CONT-                  0.000000E+00      0.000000E+00      3.003184E-05      20
         8       G      1.428276E-05      3.721499E-05      0.000000E+00      21
-CONT-                  0.000000E+00      0.000000E+00      3.740426E-05      22
         9       G      1.329094E-05      3.745883E-05      0.000000E+00      23
-CONT-                  0.000000E+00      0.000000E+00      4.528268E-05      24
        10       G      1.211215E-05      3.779815E-05      0.000000E+00      25
-CONT-                  0.000000E+00      0.000000E+00      5.370178E-05      26
        11       G      1.074386E-05      3.825726E-05      0.000000E+00      27
-CONT-                  0.000000E+00      0.000000E+00      6.269135E-05      28
        12       G      9.182675E-06      3.886255E-05      0.000000E+00      29
-CONT-                  0.000000E+00      0.000000E+00      7.222311E-05      30
        13       G      7.429698E-06      3.964252E-05      0.000000E+00      31
-CONT-                  0.000000E+00      0.000000E+00      8.232655E-05      32
        14       G      5.488580E-06      4.062558E-05      0.000000E+00      33
-CONT-                  0.000000E+00      0.000000E+00      9.295472E-05      34
        15       G      3.367401E-06      4.184166E-05      0.000000E+00      35
-CONT-                  0.000000E+00      0.000000E+00      1.040772E-04      36
        16       G      1.078492E-06      4.331990E-05      0.000000E+00      37
-CONT-                  0.000000E+00      0.000000E+00      1.156576E-04      38
        17       G     -1.361018E-06      4.508835E-05      0.000000E+00      39
-CONT-                  0.000000E+00      0.000000E+00      1.276370E-04      40
        18       G     -3.930720E-06      4.717571E-05      0.000000E+00      41
-CONT-                  0.000000E+00      0.000000E+00      1.398710E-04      42
        19       G     -6.602006E-06      4.960622E-05      0.000000E+00      43
-CONT-                  0.000000E+00      0.000000E+00      1.522977E-04      44
        20       G     -9.343084E-06      5.240430E-05      0.000000E+00      45
-CONT-                  0.000000E+00      0.000000E+00      1.644141E-04      46
        21       G     -1.212520E-05      5.559928E-05      0.000000E+00      47
-CONT-                  0.000000E+00      0.000000E+00      1.767892E-04      48
        22       G     -1.487121E-05      5.923394E-05      0.000000E+00      49
-CONT-                  0.000000E+00      0.000000E+00      1.870415E-04      50
        23       G     -1.752348E-05      6.326654E-05      0.000000E+00      51
-CONT-                  0.000000E+00      0.000000E+00      1.960226E-04      52
        24       G     -2.007607E-05      6.768466E-05      0.000000E+00      53
-CONT-                  0.000000E+00      0.000000E+00      2.058766E-04      54
        25       G     -2.245002E-05      7.249029E-05      0.000000E+00      55
-CONT-                  0.000000E+00      0.000000E+00      2.149235E-04      56
        26       G     -2.460724E-05      7.765964E-05      0.000000E+00      57
-CONT-                  0.000000E+00      0.000000E+00      2.239326E-04      58
        27       G     -2.647866E-05      8.319312E-05      0.000000E+00      59
-CONT-                  0.000000E+00      0.000000E+00      2.322997E-04      60
        28       G     -2.792759E-05      8.903623E-05      0.000000E+00      61
-CONT-                  0.000000E+00      0.000000E+00      2.346790E-04      62
        29       G     -2.892634E-05      9.506251E-05      0.000000E+00      63
-CONT-                  0.000000E+00      0.000000E+00      2.337472E-04      64
        30       G     -2.948217E-05      1.012163E-04      0.000000E+00      65
-CONT-                  0.000000E+00      0.000000E+00      2.326805E-04      66
        31       G     -2.951563E-05      1.074424E-04      0.000000E+00      67
-CONT-                  0.000000E+00      0.000000E+00      2.288850E-04      68
        32       G     -2.900526E-05      1.136290E-04      0.000000E+00      69
-CONT-                  0.000000E+00      0.000000E+00      2.233393E-04      70
        33       G     -2.790223E-05      1.196927E-04      0.000000E+00      71
-CONT-                  0.000000E+00      0.000000E+00      2.141490E-04      72
        34       G     -2.611411E-05      1.254627E-04      0.000000E+00      73
-CONT-                  0.000000E+00      0.000000E+00      1.977294E-04      74
        35       G     -2.371628E-05      1.307662E-04      0.000000E+00      75
-CONT-                  0.000000E+00      0.000000E+00      1.781085E-04      76
        36       G     -2.075301E-05      1.355108E-04      0.000000E+00      77
-CONT-                  0.000000E+00      0.000000E+00      1.540532E-04      78
        37       G     -1.727915E-05      1.395614E-04      0.000000E+00      79
-CONT-                  0.000000E+00      0.000000E+00      1.270458E-04      80
        38       G     -1.340149E-05      1.428493E-04      0.000000E+00      81
-CONT-                  0.000000E+00      0.000000E+00      9.977385E-05      82
        39       G     -9.190630E-06      1.453143E-04      0.000000E+00      83
-CONT-                  0.000000E+00      0.000000E+00      6.974233E-05      84
        40       G     -4.727083E-06      1.467993E-04      0.000000E+00      85
-CONT-                  0.000000E+00      0.000000E+00      3.801607E-05      86
        41       G     -1.397308E-07      1.472887E-04      0.000000E+00      87
-CONT-                  0.000000E+00      0.000000E+00      1.210316E-06      88
        42       G      4.436321E-06      1.467808E-04      0.000000E+00      89
-CONT-                  0.000000E+00      0.000000E+00     -3.396949E-05      90
        43       G      8.892331E-06      1.452857E-04      0.000000E+00      91
-CONT-                  0.000000E+00      0.000000E+00     -6.465332E-05      92
        44       G      1.313625E-05      1.428615E-04      0.000000E+00      93
-CONT-                  0.000000E+00      0.000000E+00     -9.595995E-05      94
        45       G      1.703565E-05      1.395836E-04      0.000000E+00      95
-CONT-                  0.000000E+00      0.000000E+00     -1.256452E-04      96
        46       G      2.048817E-05      1.355068E-04      0.000000E+00      97
-CONT-                  0.000000E+00      0.000000E+00     -1.513967E-04      98
        47       G      2.342151E-05      1.307283E-04      0.000000E+00      99
-CONT-                  0.000000E+00      0.000000E+00     -1.760093E-04     100
        48       G      2.576243E-05      1.254136E-04      0.000000E+00     101
-CONT-                  0.000000E+00      0.000000E+00     -1.950271E-04     102
        49       G      2.752393E-05      1.196997E-04      0.000000E+00     103
-CONT-                  0.000000E+00      0.000000E+00     -2.089577E-04     104
        50       G      2.871437E-05      1.136843E-04      0.000000E+00     105
-CONT-                  0.000000E+00      0.000000E+00     -2.218976E-04     106
        51       G      2.929563E-05      1.074668E-04      0.000000E+00     107
-CONT-                  0.000000E+00      0.000000E+00     -2.320329E-04     108
        52       G      2.926147E-05      1.012078E-04      0.000000E+00     109
-CONT-                  0.000000E+00      0.000000E+00     -2.363300E-04     110
        53       G      2.869429E-05      9.501907E-05      0.000000E+00     111
-CONT-                  0.000000E+00      0.000000E+00     -2.372487E-04     112
        54       G      2.761264E-05      8.898266E-05      0.000000E+00     113
-CONT-                  0.000000E+00      0.000000E+00     -2.343789E-04     114
        55       G      2.612619E-05      8.320573E-05      0.000000E+00     115
-CONT-                  0.000000E+00      0.000000E+00     -2.291737E-04     116
        56       G      2.432398E-05      7.769543E-05      0.000000E+00     117
-CONT-                  0.000000E+00      0.000000E+00     -2.247180E-04     118
        57       G      2.220024E-05      7.248093E-05      0.000000E+00     119
-CONT-                  0.000000E+00      0.000000E+00     -2.185149E-04     120
        58       G      1.982148E-05      6.765068E-05      0.000000E+00     121
-CONT-                  0.000000E+00      0.000000E+00     -2.106756E-04     122
        59       G      1.725618E-05      6.321992E-05      0.000000E+00     123
-CONT-                  0.000000E+00      0.000000E+00     -1.999335E-04     124
        60       G      1.454790E-05      5.921070E-05      0.000000E+00     125
-CONT-                  0.000000E+00      0.000000E+00     -1.868751E-04     126
        61       G      1.179092E-05      5.563028E-05      0.000000E+00     127
-CONT-                  0.000000E+00      0.000000E+00     -1.749176E-04     128
        62       G      9.031745E-06      5.244540E-05      0.000000E+00     129
-CONT-                  0.000000E+00      0.000000E+00     -1.628204E-04     130
        63       G      6.299130E-06      4.963573E-05      0.000000E+00     131
-CONT-                  0.000000E+00      0.000000E+00     -1.507356E-04     132
        64       G      3.636091E-06      4.719619E-05      0.000000E+00     133
-CONT-                  0.000000E+00      0.000000E+00     -1.388470E-04     134
        65       G      1.069939E-06      4.509657E-05      0.000000E+00     135
-CONT-                  0.000000E+00      0.000000E+00     -1.270932E-04     136
        66       G     -1.370329E-06      4.331869E-05      0.000000E+00     137
-CONT-                  0.000000E+00      0.000000E+00     -1.159770E-04     138
        67       G     -3.654436E-06      4.184037E-05      0.000000E+00     139
-CONT-                  0.000000E+00      0.000000E+00     -1.036063E-04     140
        68       G     -5.776616E-06      4.062174E-05      0.000000E+00     141
-CONT-                  0.000000E+00      0.000000E+00     -9.168133E-05     142
        69       G     -7.711586E-06      3.964154E-05      0.000000E+00     143
-CONT-                  0.000000E+00      0.000000E+00     -8.177103E-05     144
        70       G     -9.460277E-06      3.886224E-05      0.000000E+00     145
-CONT-                  0.000000E+00      0.000000E+00     -7.202184E-05     146
        71       G     -1.102444E-05      3.825464E-05      0.000000E+00     147
-CONT-                  0.000000E+00      0.000000E+00     -6.277420E-05     148
        72       G     -1.239653E-05      3.779583E-05      0.000000E+00     149
-CONT-                  0.000000E+00      0.000000E+00     -5.385697E-05     150
        73       G     -1.357708E-05      3.745816E-05      0.000000E+00     151
-CONT-                  0.000000E+00      0.000000E+00     -4.546794E-05     152
        74       G     -1.456788E-05      3.721588E-05      0.000000E+00     153
-CONT-                  0.000000E+00      0.000000E+00     -3.765449E-05     154
        75       G     -1.537478E-05      3.704540E-05      0.000000E+00     155
-CONT-                  0.000000E+00      0.000000E+00     -3.039972E-05     156
        76       G     -1.600427E-05      3.692243E-05      0.000000E+00     157
-CONT-                  0.000000E+00      0.000000E+00     -2.370060E-05     158
        77       G     -1.545200E-05      5.625439E-05      0.000000E+00     159
-CONT-                  0.000000E+00      0.000000E+00     -1.703011E-05     160
        78       G     -1.541007E-05      5.670266E-05      0.000000E+00     161
-CONT-                  0.000000E+00      0.000000E+00     -2.038865E-05     162
        79       G     -1.536317E-05      5.715446E-05      0.000000E+00     163
-CONT-                  0.000000E+00      0.000000E+00     -2.324536E-05     164
        80       G     -1.531161E-05      5.761037E-05      0.000000E+00     165
-CONT-                  0.000000E+00      0.000000E+00     -2.683893E-05     166
        81       G     -1.525618E-05      5.807039E-05      0.000000E+00     167
-CONT-                  0.000000E+00      0.000000E+00     -3.050663E-05     168
        82       G     -1.519648E-05      5.853449E-05      0.000000E+00     169
-CONT-                  0.000000E+00      0.000000E+00     -3.322367E-05     170
        83       G     -1.513318E-05      5.900310E-05      0.000000E+00     171
-CONT-                  0.000000E+00      0.000000E+00     -3.622593E-05     172
        84       G     -1.506622E-05      5.947589E-05      0.000000E+00     173
-CONT-                  0.000000E+00      0.000000E+00     -3.924431E-05     174
        85       G     -1.499565E-05      5.995283E-05      0.000000E+00     175
-CONT-                  0.000000E+00      0.000000E+00     -4.226540E-05     176
        86       G     -1.492175E-05      6.043396E-05      0.000000E+00     177
-CONT-                  0.000000E+00      0.000000E+00     -4.525415E-05     178
        87       G     -1.484457E-05      6.091930E-05      0.000000E+00     179
-CONT-                  0.000000E+00      0.000000E+00     -4.820239E-05     180
        88       G     -1.476428E-05      6.140895E-05      0.000000E+00     181
-CONT-                  0.000000E+00      0.000000E+00     -5.112530E-05     182
        89       G     -1.468098E-05      6.190297E-05      0.000000E+00     183
-CONT-                  0.000000E+00      0.000000E+00     -5.403424E-05     184
        90       G     -1.459474E-05      6.240138E-05      0.000000E+00     185
-CONT-                  0.000000E+00      0.000000E+00     -5.693048E-05     186
        91       G     -1.450569E-05      6.290425E-05      0.000000E+00     187
-CONT-                  0.000000E+00      0.000000E+00     -5.982783E-05     188
        92       G     -1.441389E-05      6.341159E-05      0.000000E+00     189
-CONT-                  0.000000E+00      0.000000E+00     -6.272306E-05     190
        93       G     -1.431946E-05      6.392353E-05      0.000000E+00     191
-CONT-                  0.000000E+00      0.000000E+00     -6.569527E-05     192
        94       G     -1.422234E-05      6.444014E-05      0.000000E+00     193
-CONT-                  0.000000E+00      0.000000E+00     -6.877771E-05     194
        95       G     -1.412173E-05      6.496076E-05      0.000000E+00     195
-CONT-                  0.000000E+00      0.000000E+00     -7.134887E-05     196
        96       G     -1.401912E-05      6.548590E-05      0.000000E+00     197
-CONT-                  0.000000E+00      0.000000E+00     -7.430451E-05     198
        97       G     -1.391451E-05      6.601575E-05      0.000000E+00     199
-CONT-                  0.000000E+00      0.000000E+00     -7.770159E-05     200
        98       G     -1.380727E-05      6.655018E-05      0.000000E+00     201
-CONT-                  0.000000E+00      0.000000E+00     -8.007889E-05     202
        99       G     -1.369812E-05      6.708962E-05      0.000000E+00     203
-CONT-                  0.000000E+00      0.000000E+00     -8.281078E-05     204
       100       G     -1.358655E-05      6.763374E-05      0.000000E+00     205
-CONT-                  0.000000E+00      0.000000E+00     -8.560085E-05     206
$TITLE   = MSC.NASTRAN JOB                                                   207
$SUBTITLE=LC_10                                                              208
$LABEL   =                                                                   209
$DISPLACEMENTS                                                               210
$REAL OUTPUT                                                                 211
$SUBCASE ID =           2                                                    212
         1       G      2.437198E-05      2.366353E-05      0.000000E+00     213
-CONT-                  0.000000E+00      0.000000E+00     -7.346341E-05     214
         2       G      5.481621E-05      4.861919E-05      0.000000E+00     215
-CONT-                  0.000000E+00      0.000000E+00     -3.740081E-05     216
         3       G     -7.397749E-06     -2.161021E-07      0.000000E+00     217
-CONT-                  0.000000E+00      0.000000E+00     -5.468586E-06     218
         4       G      9.723793E-06      0.000000E+00      0.000000E+00     219
-CONT-                  0.000000E+00      0.000000E+00      0.000000E+00     220
         5       G      2.654459E-05      6.207483E-05      0.000000E+00     221
-CONT-                  0.000000E+00      0.000000E+00     -9.875413E-05     222
         6       G      5.576527E-05      4.850551E-05      0.000000E+00     223
-CONT-                  0.000000E+00      0.000000E+00     -3.293797E-05     224
         7       G      5.655732E-05      4.832999E-05      0.000000E+00     225
-CONT-                  0.000000E+00      0.000000E+00     -2.773152E-05     226
         8       G      5.718246E-05      4.811647E-05      0.000000E+00     227
-CONT-                  0.000000E+00      0.000000E+00     -2.184185E-05     228
         9       G      5.763031E-05      4.788840E-05      0.000000E+00     229
-CONT-                  0.000000E+00      0.000000E+00     -1.534665E-05     230
        10       G      5.788922E-05      4.766763E-05      0.000000E+00     231
-CONT-                  0.000000E+00      0.000000E+00     -8.193843E-06     232
        11       G      5.794891E-05      4.747808E-05      0.000000E+00     233
-CONT-                  0.000000E+00      0.000000E+00     -3.297989E-07     234
        12       G      5.779669E-05      4.734561E-05      0.000000E+00     235
-CONT-                  0.000000E+00      0.000000E+00      8.272107E-06     236
        13       G      5.742411E-05      4.729972E-05      0.000000E+00     237
-CONT-                  0.000000E+00      0.000000E+00      1.765823E-05     238
        14       G      5.682279E-05      4.737027E-05      0.000000E+00     239
-CONT-                  0.000000E+00      0.000000E+00      2.788106E-05     240
        15       G      5.598922E-05      4.759226E-05      0.000000E+00     241
-CONT-                  0.000000E+00      0.000000E+00      3.890279E-05     242
        16       G      5.492364E-05      4.800021E-05      0.000000E+00     243
-CONT-                  0.000000E+00      0.000000E+00      5.073608E-05     244
        17       G      5.363104E-05      4.863045E-05      0.000000E+00     245
-CONT-                  0.000000E+00      0.000000E+00      6.333562E-05     246
        18       G      5.212113E-05      4.952161E-05      0.000000E+00     247
-CONT-                  0.000000E+00      0.000000E+00      7.651081E-05     248
        19       G      5.041211E-05      5.070729E-05      0.000000E+00     249
-CONT-                  0.000000E+00      0.000000E+00      9.029795E-05     250
        20       G      4.852304E-05      5.222666E-05      0.000000E+00     251
-CONT-                  0.000000E+00      0.000000E+00      1.040704E-04     252
        21       G      4.647662E-05      5.411952E-05      0.000000E+00     253
-CONT-                  0.000000E+00      0.000000E+00      1.184645E-04     254
        22       G      4.432716E-05      5.644292E-05      0.000000E+00     255
-CONT-                  0.000000E+00      0.000000E+00      1.319074E-04     256
        23       G      4.212642E-05      5.918564E-05      0.000000E+00     257
-CONT-                  0.000000E+00      0.000000E+00      1.447299E-04     258
        24       G      3.987760E-05      6.235650E-05      0.000000E+00     259
-CONT-                  0.000000E+00      0.000000E+00      1.590499E-04     260
        25       G      3.765713E-05      6.597930E-05      0.000000E+00     261
-CONT-                  0.000000E+00      0.000000E+00      1.731540E-04     262
        26       G      3.550615E-05      7.005419E-05      0.000000E+00     263
-CONT-                  0.000000E+00      0.000000E+00      1.875331E-04     264
        27       G      3.350369E-05      7.459798E-05      0.000000E+00     265
-CONT-                  0.000000E+00      0.000000E+00      2.027818E-04     266
        28       G      3.178015E-05      7.958082E-05      0.000000E+00     267
-CONT-                  0.000000E+00      0.000000E+00      2.129671E-04     268
        29       G      3.037326E-05      8.490398E-05      0.000000E+00     269
-CONT-                  0.000000E+00      0.000000E+00      2.193789E-04     270
        30       G      2.930043E-05      9.053663E-05      0.000000E+00     271
-CONT-                  0.000000E+00      0.000000E+00      2.258669E-04     272
        31       G      2.865636E-05      9.643589E-05      0.000000E+00     273
-CONT-                  0.000000E+00      0.000000E+00      2.298032E-04     274
        32       G      2.848504E-05      1.025040E-04      0.000000E+00     275
-CONT-                  0.000000E+00      0.000000E+00      2.317666E-04     276
        33       G      2.885338E-05      1.086656E-04      0.000000E+00     277
-CONT-                  0.000000E+00      0.000000E+00      2.303145E-04     278
        34       G      2.988311E-05      1.147677E-04      0.000000E+00     279
-CONT-                  0.000000E+00      0.000000E+00      2.213002E-04     280
        35       G      3.152980E-05      1.206283E-04      0.000000E+00     281
-CONT-                  0.000000E+00      0.000000E+00      2.086462E-04     282
        36       G      3.378065E-05      1.261412E-04      0.000000E+00     283
-CONT-                  0.000000E+00      0.000000E+00      1.912233E-04     284
        37       G      3.660575E-05      1.311474E-04      0.000000E+00     285
-CONT-                  0.000000E+00      0.000000E+00      1.701733E-04     286
        38       G      3.991202E-05      1.355622E-04      0.000000E+00     287
-CONT-                  0.000000E+00      0.000000E+00      1.486143E-04     288
        39       G      4.366568E-05      1.393048E-04      0.000000E+00     289
-CONT-                  0.000000E+00      0.000000E+00      1.234329E-04     290
        40       G      4.781602E-05      1.421786E-04      0.000000E+00     291
-CONT-                  0.000000E+00      0.000000E+00      9.488148E-05     292
        41       G      5.223657E-05      1.441288E-04      0.000000E+00     293
-CONT-                  0.000000E+00      0.000000E+00      5.958874E-05     294
        42       G      5.681277E-05      1.451060E-04      0.000000E+00     295
-CONT-                  0.000000E+00      0.000000E+00      2.380560E-05     296
        43       G      6.142164E-05      1.450612E-04      0.000000E+00     297
-CONT-                  0.000000E+00      0.000000E+00     -8.652694E-06     298
        44       G      6.594137E-05      1.440294E-04      0.000000E+00     299
-CONT-                  0.000000E+00      0.000000E+00     -4.179599E-05     300
        45       G      7.024726E-05      1.420643E-04      0.000000E+00     301
-CONT-                  0.000000E+00      0.000000E+00     -7.444373E-05     302
        46       G      7.422854E-05      1.391634E-04      0.000000E+00     303
-CONT-                  0.000000E+00      0.000000E+00     -1.044154E-04     304
        47       G      7.778218E-05      1.353978E-04      0.000000E+00     305
-CONT-                  0.000000E+00      0.000000E+00     -1.349961E-04     306
        48       G      8.081337E-05      1.309108E-04      0.000000E+00     307
-CONT-                  0.000000E+00      0.000000E+00     -1.609965E-04     308
        49       G      8.330095E-05      1.258204E-04      0.000000E+00     309
-CONT-                  0.000000E+00      0.000000E+00     -1.816692E-04     310
        50       G      8.522143E-05      1.202211E-04      0.000000E+00     311
-CONT-                  0.000000E+00      0.000000E+00     -2.013699E-04     312
        51       G      8.651338E-05      1.142102E-04      0.000000E+00     313
-CONT-                  0.000000E+00      0.000000E+00     -2.192899E-04     314
        52       G      8.714724E-05      1.079516E-04      0.000000E+00     315
-CONT-                  0.000000E+00      0.000000E+00     -2.315698E-04     316
        53       G      8.717629E-05      1.015577E-04      0.000000E+00     317
-CONT-                  0.000000E+00      0.000000E+00     -2.395100E-04     318
        54       G      8.659824E-05      9.513023E-05      0.000000E+00     319
-CONT-                  0.000000E+00      0.000000E+00     -2.436642E-04     320
        55       G      8.551520E-05      8.880249E-05      0.000000E+00     321
-CONT-                  0.000000E+00      0.000000E+00     -2.451154E-04     322
        56       G      8.400270E-05      8.259111E-05      0.000000E+00     323
-CONT-                  0.000000E+00      0.000000E+00     -2.472103E-04     324
        57       G      8.203967E-05      7.654896E-05      0.000000E+00     325
-CONT-                  0.000000E+00      0.000000E+00     -2.471425E-04     326
        58       G      7.968381E-05      7.078383E-05      0.000000E+00     327
-CONT-                  0.000000E+00      0.000000E+00     -2.446162E-04     328
        59       G      7.699754E-05      6.532681E-05      0.000000E+00     329
-CONT-                  0.000000E+00      0.000000E+00     -2.392120E-04     330
        60       G      7.402518E-05      6.023401E-05      0.000000E+00     331
-CONT-                  0.000000E+00      0.000000E+00     -2.305070E-04     332
        61       G      7.087224E-05      5.553101E-05      0.000000E+00     333
-CONT-                  0.000000E+00      0.000000E+00     -2.219508E-04     334
        62       G      6.759000E-05      5.119530E-05      0.000000E+00     335
-CONT-                  0.000000E+00      0.000000E+00     -2.132876E-04     336
        63       G      6.420942E-05      4.722837E-05      0.000000E+00     337
-CONT-                  0.000000E+00      0.000000E+00     -2.041293E-04     338
        64       G      6.077979E-05      4.364100E-05      0.000000E+00     339
-CONT-                  0.000000E+00      0.000000E+00     -1.946463E-04     340
        65       G      5.733665E-05      4.041647E-05      0.000000E+00     341
-CONT-                  0.000000E+00      0.000000E+00     -1.848444E-04     342
        66       G      5.391929E-05      3.755223E-05      0.000000E+00     343
-CONT-                  0.000000E+00      0.000000E+00     -1.751940E-04     344
        67       G      5.056588E-05      3.503380E-05      0.000000E+00     345
-CONT-                  0.000000E+00      0.000000E+00     -1.640336E-04     346
        68       G      4.729367E-05      3.283589E-05      0.000000E+00     347
-CONT-                  0.000000E+00      0.000000E+00     -1.527675E-04     348
        69       G      4.414185E-05      3.094283E-05      0.000000E+00     349
-CONT-                  0.000000E+00      0.000000E+00     -1.430897E-04     350
        70       G      4.111804E-05      2.932178E-05      0.000000E+00     351
-CONT-                  0.000000E+00      0.000000E+00     -1.333314E-04     352
        71       G      3.823319E-05      2.794854E-05      0.000000E+00     353
-CONT-                  0.000000E+00      0.000000E+00     -1.238421E-04     354
        72       G      3.550317E-05      2.680280E-05      0.000000E+00     355
-CONT-                  0.000000E+00      0.000000E+00     -1.145110E-04     356
        73       G      3.293609E-05      2.585962E-05      0.000000E+00     357
-CONT-                  0.000000E+00      0.000000E+00     -1.055317E-04     358
        74       G      3.053853E-05      2.509574E-05      0.000000E+00     359
-CONT-                  0.000000E+00      0.000000E+00     -9.695486E-05     360
        75       G      2.831203E-05      2.448829E-05      0.000000E+00     361
-CONT-                  0.000000E+00      0.000000E+00     -8.880058E-05     362
        76       G      2.625640E-05      2.401594E-05      0.000000E+00     363
-CONT-                  0.000000E+00      0.000000E+00     -8.100894E-05     364
        77       G      2.680379E-05      6.255669E-05      0.000000E+00     365
-CONT-                  0.000000E+00      0.000000E+00     -1.013039E-04     366
        78       G      2.706557E-05      6.304280E-05      0.000000E+00     367
-CONT-                  0.000000E+00      0.000000E+00     -1.038125E-04     368
        79       G      2.732980E-05      6.353283E-05      0.000000E+00     369
-CONT-                  0.000000E+00      0.000000E+00     -1.059909E-04     370
        80       G      2.759664E-05      6.402736E-05      0.000000E+00     371
-CONT-                  0.000000E+00      0.000000E+00     -1.089427E-04     372
        81       G      2.786555E-05      6.452623E-05      0.000000E+00     373
-CONT-                  0.000000E+00      0.000000E+00     -1.120136E-04     374
        82       G      2.813701E-05      6.502953E-05      0.000000E+00     375
-CONT-                  0.000000E+00      0.000000E+00     -1.142412E-04     376
        83       G      2.841068E-05      6.553766E-05      0.000000E+00     377
-CONT-                  0.000000E+00      0.000000E+00     -1.168015E-04     378
        84       G      2.868666E-05      6.605023E-05      0.000000E+00     379
-CONT-                  0.000000E+00      0.000000E+00     -1.193934E-04     380
        85       G      2.896496E-05      6.656723E-05      0.000000E+00     381
-CONT-                  0.000000E+00      0.000000E+00     -1.220222E-04     382
        86       G      2.924538E-05      6.708864E-05      0.000000E+00     383
-CONT-                  0.000000E+00      0.000000E+00     -1.246403E-04     384
        87       G      2.952792E-05      6.761446E-05      0.000000E+00     385
-CONT-                  0.000000E+00      0.000000E+00     -1.272344E-04     386
        88       G      2.981247E-05      6.814472E-05      0.000000E+00     387
-CONT-                  0.000000E+00      0.000000E+00     -1.298141E-04     388
        89       G      3.009895E-05      6.867946E-05      0.000000E+00     389
-CONT-                  0.000000E+00      0.000000E+00     -1.323811E-04     390
        90       G      3.038735E-05      6.921869E-05      0.000000E+00     391
-CONT-                  0.000000E+00      0.000000E+00     -1.349376E-04     392
        91       G      3.067753E-05      6.976241E-05      0.000000E+00     393
-CONT-                  0.000000E+00      0.000000E+00     -1.374861E-04     394
        92       G      3.096946E-05      7.031065E-05      0.000000E+00     395
-CONT-                  0.000000E+00      0.000000E+00     -1.400338E-04     396
        93       G      3.126304E-05      7.086352E-05      0.000000E+00     397
-CONT-                  0.000000E+00      0.000000E+00     -1.426532E-04     398
        94       G      3.155831E-05      7.142105E-05      0.000000E+00     399
-CONT-                  0.000000E+00      0.000000E+00     -1.453822E-04     400
        95       G      3.185609E-05      7.198282E-05      0.000000E+00     401
-CONT-                  0.000000E+00      0.000000E+00     -1.477240E-04     402
        96       G      3.215508E-05      7.254906E-05      0.000000E+00     403
-CONT-                  0.000000E+00      0.000000E+00     -1.504411E-04     404
        97       G      3.245521E-05      7.311974E-05      0.000000E+00     405
-CONT-                  0.000000E+00      0.000000E+00     -1.535030E-04     406
        98       G      3.275691E-05      7.369484E-05      0.000000E+00     407
-CONT-                  0.000000E+00      0.000000E+00     -1.555184E-04     408
        99       G      3.305967E-05      7.427482E-05      0.000000E+00     409
-CONT-                  0.000000E+00      0.000000E+00     -1.578847E-04     410
       100       G      3.336386E-05      7.485932E-05      0.000000E+00     411
-CONT-                  0.000000E+00      0.000000E+00     -1.602952E-04     412
$TITLE   = MSC.NASTRAN JOB                                                   413
$SUBTITLE=LC_20                                                              414
$LABEL   =                                                                   415
$DISPLACEMENTS                                                               416
$REAL OUTPUT                                                                 417
$SUBCASE ID =           3                                                    418
         1       G      6.558833E-05      9.812326E-06      0.000000E+00     419
-CONT-                  0.000000E+00      0.000000E+00     -1.270486E-04     420
         2       G      8.968473E-05      5.851153E-05      0.000000E+00     421
-CONT-                  0.000000E+00      0.000000E+00     -8.653825E-05     422
         3       G     -5.450162E-06     -4.665691E-07      0.000000E+00     423
-CONT-                  0.000000E+00      0.000000E+00     -1.193285E-05     424
         4       G      1.029556E-05      0.000000E+00      0.000000E+00     425
-CONT-                  0.000000E+00      0.000000E+00      0.000000E+00     426
         5       G      6.938454E-05      6.585485E-05      0.000000E+00     427
-CONT-                  0.000000E+00      0.000000E+00     -1.693940E-04     428
         6       G      9.192726E-05      5.824804E-05      0.000000E+00     429
-CONT-                  0.000000E+00      0.000000E+00     -8.417804E-05     430
         7       G      9.403987E-05      5.784137E-05      0.000000E+00     431
-CONT-                  0.000000E+00      0.000000E+00     -8.089632E-05     432
         8       G      9.601030E-05      5.731664E-05      0.000000E+00     433
-CONT-                  0.000000E+00      0.000000E+00     -7.688207E-05     434
         9       G      9.782398E-05      5.669601E-05      0.000000E+00     435
-CONT-                  0.000000E+00      0.000000E+00     -7.223075E-05     436
        10       G      9.946440E-05      5.599844E-05      0.000000E+00     437
-CONT-                  0.000000E+00      0.000000E+00     -6.687842E-05     438
        11       G      1.009151E-04      5.524527E-05      0.000000E+00     439
-CONT-                  0.000000E+00      0.000000E+00     -6.075257E-05     440
        12       G      1.021561E-04      5.445927E-05      0.000000E+00     441
-CONT-                  0.000000E+00      0.000000E+00     -5.377564E-05     442
        13       G      1.031704E-04      5.366799E-05      0.000000E+00     443
-CONT-                  0.000000E+00      0.000000E+00     -4.588241E-05     444
        14       G      1.039389E-04      5.289960E-05      0.000000E+00     445
-CONT-                  0.000000E+00      0.000000E+00     -3.692378E-05     446
        15       G      1.044468E-04      5.219052E-05      0.000000E+00     447
-CONT-                  0.000000E+00      0.000000E+00     -2.692947E-05     448
        16       G      1.046820E-04      5.157722E-05      0.000000E+00     449
-CONT-                  0.000000E+00      0.000000E+00     -1.582976E-05     450
        17       G      1.046364E-04      5.110087E-05      0.000000E+00     451
-CONT-                  0.000000E+00      0.000000E+00     -3.642252E-06     452
        18       G      1.043074E-04      5.080678E-05      0.000000E+00     453
-CONT-                  0.000000E+00      0.000000E+00      9.419788E-06     454
        19       G      1.037007E-04      5.073529E-05      0.000000E+00     455
-CONT-                  0.000000E+00      0.000000E+00      2.349325E-05     456
        20       G      1.028203E-04      5.093757E-05      0.000000E+00     457
-CONT-                  0.000000E+00      0.000000E+00      3.787907E-05     458
        21       G      1.016800E-04      5.146148E-05      0.000000E+00     459
-CONT-                  0.000000E+00      0.000000E+00      5.323862E-05     460
        22       G      1.003068E-04      5.237505E-05      0.000000E+00     461
-CONT-                  0.000000E+00      0.000000E+00      6.892199E-05     462
        23       G      9.874239E-05      5.369924E-05      0.000000E+00     463
-CONT-                  0.000000E+00      0.000000E+00      8.471956E-05     464
        24       G      9.698584E-05      5.546493E-05      0.000000E+00     465
-CONT-                  0.000000E+00      0.000000E+00      1.025925E-04     466
        25       G      9.510606E-05      5.771716E-05      0.000000E+00     467
-CONT-                  0.000000E+00      0.000000E+00      1.208928E-04     468
        26       G      9.314431E-05      6.048118E-05      0.000000E+00     469
-CONT-                  0.000000E+00      0.000000E+00      1.398036E-04     470
        27       G      9.118500E-05      6.379015E-05      0.000000E+00     471
-CONT-                  0.000000E+00      0.000000E+00      1.610981E-04     472
        28       G      8.934522E-05      6.764109E-05      0.000000E+00     473
-CONT-                  0.000000E+00      0.000000E+00      1.785598E-04     474
        29       G      8.767074E-05      7.196940E-05      0.000000E+00     475
-CONT-                  0.000000E+00      0.000000E+00      1.919983E-04     476
        30       G      8.620278E-05      7.677152E-05      0.000000E+00     477
-CONT-                  0.000000E+00      0.000000E+00      2.057360E-04     478
        31       G      8.504642E-05      8.201941E-05      0.000000E+00     479
-CONT-                  0.000000E+00      0.000000E+00      2.172465E-04     480
        32       G      8.426614E-05      8.763514E-05      0.000000E+00     481
-CONT-                  0.000000E+00      0.000000E+00      2.266653E-04     482
        33       G      8.394364E-05      9.355506E-05      0.000000E+00     483
-CONT-                  0.000000E+00      0.000000E+00      2.330803E-04     484
        34       G      8.422385E-05      9.965249E-05      0.000000E+00     485
-CONT-                  0.000000E+00      0.000000E+00      2.319932E-04     486
        35       G      8.509562E-05      1.057459E-04      0.000000E+00     487
-CONT-                  0.000000E+00      0.000000E+00      2.270233E-04     488
        36       G      8.657815E-05      1.117209E-04      0.000000E+00     489
-CONT-                  0.000000E+00      0.000000E+00      2.172178E-04     490
        37       G      8.866812E-05      1.174027E-04      0.000000E+00     491
-CONT-                  0.000000E+00      0.000000E+00      2.033093E-04     492
        38       G      9.129087E-05      1.226958E-04      0.000000E+00     493
-CONT-                  0.000000E+00      0.000000E+00      1.886836E-04     494
        39       G      9.445172E-05      1.275026E-04      0.000000E+00     495
-CONT-                  0.000000E+00      0.000000E+00      1.697464E-04     496
        40       G      9.813245E-05      1.315966E-04      0.000000E+00     497
-CONT-                  0.000000E+00      0.000000E+00      1.459220E-04     498
        41       G      1.022151E-04      1.348874E-04      0.000000E+00     499
-CONT-                  0.000000E+00      0.000000E+00      1.140871E-04     500
        42       G      1.066116E-04      1.372795E-04      0.000000E+00     501
-CONT-                  0.000000E+00      0.000000E+00      7.965034E-05     502
        43       G      1.111908E-04      1.386681E-04      0.000000E+00     503
-CONT-                  0.000000E+00      0.000000E+00      4.718579E-05     504
        44       G      1.158074E-04      1.390637E-04      0.000000E+00     505
-CONT-                  0.000000E+00      0.000000E+00      1.401697E-05     506
        45       G      1.203511E-04      1.384947E-04      0.000000E+00     507
-CONT-                  0.000000E+00      0.000000E+00     -1.982461E-05     508
        46       G      1.247082E-04      1.369017E-04      0.000000E+00     509
-CONT-                  0.000000E+00      0.000000E+00     -5.240189E-05     510
        47       G      1.287499E-04      1.343261E-04      0.000000E+00     511
-CONT-                  0.000000E+00      0.000000E+00     -8.727018E-05     512
        48       G      1.323647E-04      1.308817E-04      0.000000E+00     513
-CONT-                  0.000000E+00      0.000000E+00     -1.188039E-04     514
        49       G      1.354985E-04      1.266619E-04      0.000000E+00     515
-CONT-                  0.000000E+00      0.000000E+00     -1.450671E-04     516
        50       G      1.380974E-04      1.217529E-04      0.000000E+00     517
-CONT-                  0.000000E+00      0.000000E+00     -1.704388E-04     518
        51       G      1.400798E-04      1.162448E-04      0.000000E+00     519
-CONT-                  0.000000E+00      0.000000E+00     -1.951286E-04     520
        52       G      1.413941E-04      1.102964E-04      0.000000E+00     521
-CONT-                  0.000000E+00      0.000000E+00     -2.146591E-04     522
        53       G      1.420623E-04      1.040155E-04      0.000000E+00     523
-CONT-                  0.000000E+00      0.000000E+00     -2.291376E-04     524
        54       G      1.420612E-04      9.751754E-05      0.000000E+00     525
-CONT-                  0.000000E+00      0.000000E+00     -2.400147E-04     526
        55       G      1.414805E-04      9.095544E-05      0.000000E+00     527
-CONT-                  0.000000E+00      0.000000E+00     -2.479590E-04     528
        56       G      1.403788E-04      8.435431E-05      0.000000E+00     529
-CONT-                  0.000000E+00      0.000000E+00     -2.564240E-04     530
        57       G      1.387209E-04      7.778739E-05      0.000000E+00     531
-CONT-                  0.000000E+00      0.000000E+00     -2.624364E-04     532
        58       G      1.365526E-04      7.137608E-05      0.000000E+00     533
-CONT-                  0.000000E+00      0.000000E+00     -2.653114E-04     534
        59       G      1.339272E-04      6.516550E-05      0.000000E+00     535
-CONT-                  0.000000E+00      0.000000E+00     -2.654739E-04     536
        60       G      1.308874E-04      5.924251E-05      0.000000E+00     537
-CONT-                  0.000000E+00      0.000000E+00     -2.615342E-04     538
        61       G      1.275447E-04      5.364918E-05      0.000000E+00     539
-CONT-                  0.000000E+00      0.000000E+00     -2.568109E-04     540
        62       G      1.239524E-04      4.837464E-05      0.000000E+00     541
-CONT-                  0.000000E+00      0.000000E+00     -2.520274E-04     542
        63       G      1.201420E-04      4.344153E-05      0.000000E+00     543
-CONT-                  0.000000E+00      0.000000E+00     -2.462874E-04     544
        64       G      1.161660E-04      3.887536E-05      0.000000E+00     545
-CONT-                  0.000000E+00      0.000000E+00     -2.397393E-04     546
        65       G      1.120660E-04      3.467345E-05      0.000000E+00     547
-CONT-                  0.000000E+00      0.000000E+00     -2.324563E-04     548
        66       G      1.078892E-04      3.084835E-05      0.000000E+00     549
-CONT-                  0.000000E+00      0.000000E+00     -2.248553E-04     550
        67       G      1.036789E-04      2.739376E-05      0.000000E+00     551
-CONT-                  0.000000E+00      0.000000E+00     -2.155954E-04     552
        68       G      9.946214E-05      2.430000E-05      0.000000E+00     553
-CONT-                  0.000000E+00      0.000000E+00     -2.057111E-04     554
        69       G      9.528919E-05      2.155770E-05      0.000000E+00     555
-CONT-                  0.000000E+00      0.000000E+00     -1.969181E-04     556
        70       G      9.117512E-05      1.914070E-05      0.000000E+00     557
-CONT-                  0.000000E+00      0.000000E+00     -1.878222E-04     558
        71       G      8.714253E-05      1.703128E-05      0.000000E+00     559
-CONT-                  0.000000E+00      0.000000E+00     -1.787604E-04     560
        72       G      8.321409E-05      1.521306E-05      0.000000E+00     561
-CONT-                  0.000000E+00      0.000000E+00     -1.696898E-04     562
        73       G      7.940557E-05      1.366559E-05      0.000000E+00     563
-CONT-                  0.000000E+00      0.000000E+00     -1.607835E-04     564
        74       G      7.573112E-05      1.236990E-05      0.000000E+00     565
-CONT-                  0.000000E+00      0.000000E+00     -1.520878E-04     566
        75       G      7.219940E-05      1.130571E-05      0.000000E+00     567
-CONT-                  0.000000E+00      0.000000E+00     -1.436549E-04     568
        76       G      6.881643E-05      1.045635E-05      0.000000E+00     569
-CONT-                  0.000000E+00      0.000000E+00     -1.353704E-04     570
        77       G      6.982915E-05      6.635671E-05      0.000000E+00     571
-CONT-                  0.000000E+00      0.000000E+00     -1.717806E-04     572
        78       G      7.027575E-05      6.686292E-05      0.000000E+00     573
-CONT-                  0.000000E+00      0.000000E+00     -1.741110E-04     574
        79       G      7.072405E-05      6.737307E-05      0.000000E+00     575
-CONT-                  0.000000E+00      0.000000E+00     -1.761072E-04     576
        80       G      7.117432E-05      6.788772E-05      0.000000E+00     577
-CONT-                  0.000000E+00      0.000000E+00     -1.788570E-04     578
        81       G      7.162597E-05      6.840664E-05      0.000000E+00     579
-CONT-                  0.000000E+00      0.000000E+00     -1.816768E-04     580
        82       G      7.207941E-05      6.892996E-05      0.000000E+00     581
-CONT-                  0.000000E+00      0.000000E+00     -1.836579E-04     582
        83       G      7.253444E-05      6.945812E-05      0.000000E+00     583
-CONT-                  0.000000E+00      0.000000E+00     -1.859786E-04     584
        84       G      7.299108E-05      6.999065E-05      0.000000E+00     585
-CONT-                  0.000000E+00      0.000000E+00     -1.883122E-04     586
        85       G      7.344932E-05      7.052760E-05      0.000000E+00     587
-CONT-                  0.000000E+00      0.000000E+00     -1.906909E-04     588
        86       G      7.390900E-05      7.106888E-05      0.000000E+00     589
-CONT-                  0.000000E+00      0.000000E+00     -1.930534E-04     590
        87       G      7.437009E-05      7.161446E-05      0.000000E+00     591
-CONT-                  0.000000E+00      0.000000E+00     -1.953845E-04     592
        88       G      7.483249E-05      7.216434E-05      0.000000E+00     593
-CONT-                  0.000000E+00      0.000000E+00     -1.976912E-04     594
        89       G      7.529611E-05      7.271851E-05      0.000000E+00     595
-CONT-                  0.000000E+00      0.000000E+00     -1.999685E-04     596
        90       G      7.576091E-05      7.327699E-05      0.000000E+00     597
-CONT-                  0.000000E+00      0.000000E+00     -2.022223E-04     598
        91       G      7.622675E-05      7.383973E-05      0.000000E+00     599
-CONT-                  0.000000E+00      0.000000E+00     -2.044455E-04     600
        92       G      7.669357E-05      7.440675E-05      0.000000E+00     601
-CONT-                  0.000000E+00      0.000000E+00     -2.066568E-04     602
        93       G      7.716129E-05      7.497816E-05      0.000000E+00     603
-CONT-                  0.000000E+00      0.000000E+00     -2.089217E-04     604
        94       G      7.762987E-05      7.555397E-05      0.000000E+00     605
-CONT-                  0.000000E+00      0.000000E+00     -2.112832E-04     606
        95       G      7.810012E-05      7.613397E-05      0.000000E+00     607
-CONT-                  0.000000E+00      0.000000E+00     -2.133811E-04     608
        96       G      7.857096E-05      7.671817E-05      0.000000E+00     609
-CONT-                  0.000000E+00      0.000000E+00     -2.158303E-04     610
        97       G      7.904221E-05      7.730626E-05      0.000000E+00     611
-CONT-                  0.000000E+00      0.000000E+00     -2.185091E-04     612
        98       G      7.951409E-05      7.789836E-05      0.000000E+00     613
-CONT-                  0.000000E+00      0.000000E+00     -2.201352E-04     614
        99       G      7.998626E-05      7.849496E-05      0.000000E+00     615
-CONT-                  0.000000E+00      0.000000E+00     -2.220931E-04     616
       100       G      8.045899E-05      7.909565E-05      0.000000E+00     617
-CONT-                  0.000000E+00      0.000000E+00     -2.240753E-04     618
$TITLE   = MSC.NASTRAN JOB                                                   619
$SUBTITLE=LC_30                                                              620
$LABEL   =                                                                   621
$DISPLACEMENTS                                                               622
$REAL OUTPUT                                                                 623
$SUBCASE ID =           4                                                    624
         1       G      1.052299E-04     -4.087872E-06      0.000000E+00     625
-CONT-                  0.000000E+00      0.000000E+00     -1.747348E-04     626
         2       G      1.195940E-04      6.605874E-05      0.000000E+00     627
-CONT-                  0.000000E+00      0.000000E+00     -1.277187E-04     628
         3       G     -3.365476E-06     -7.035292E-07      0.000000E+00     629
-CONT-                  0.000000E+00      0.000000E+00     -1.805435E-05     630
         4       G      1.058350E-05      0.000000E+00      0.000000E+00     631
-CONT-                  0.000000E+00      0.000000E+00      0.000000E+00     632
         5       G      1.107277E-04      6.678496E-05      0.000000E+00     633
-CONT-                  0.000000E+00      0.000000E+00     -2.284910E-04     634
         6       G      1.229332E-04      6.569656E-05      0.000000E+00     635
-CONT-                  0.000000E+00      0.000000E+00     -1.274617E-04     636
         7       G      1.261765E-04      6.512456E-05      0.000000E+00     637
-CONT-                  0.000000E+00      0.000000E+00     -1.261733E-04     638
         8       G      1.293109E-04      6.436808E-05      0.000000E+00     639
-CONT-                  0.000000E+00      0.000000E+00     -1.241661E-04     640
         9       G      1.323196E-04      6.344687E-05      0.000000E+00     641
-CONT-                  0.000000E+00      0.000000E+00     -1.215527E-04     642
        10       G      1.351836E-04      6.237598E-05      0.000000E+00     643
-CONT-                  0.000000E+00      0.000000E+00     -1.182664E-04     644
        11       G      1.378824E-04      6.117280E-05      0.000000E+00     645
-CONT-                  0.000000E+00      0.000000E+00     -1.142264E-04     646
        12       G      1.403915E-04      5.985543E-05      0.000000E+00     647
-CONT-                  0.000000E+00      0.000000E+00     -1.093189E-04     648
        13       G      1.426882E-04      5.844711E-05      0.000000E+00     649
-CONT-                  0.000000E+00      0.000000E+00     -1.034664E-04     650
        14       G      1.447454E-04      5.697181E-05      0.000000E+00     651
-CONT-                  0.000000E+00      0.000000E+00     -9.644528E-05     652
        15       G      1.465393E-04      5.546368E-05      0.000000E+00     653
-CONT-                  0.000000E+00      0.000000E+00     -8.826912E-05     654
        16       G      1.480474E-04      5.395727E-05      0.000000E+00     655
-CONT-                  0.000000E+00      0.000000E+00     -7.881533E-05     656
        17       G      1.492500E-04      5.249418E-05      0.000000E+00     657
-CONT-                  0.000000E+00      0.000000E+00     -6.806585E-05     658
        18       G      1.501327E-04      5.112158E-05      0.000000E+00     659
-CONT-                  0.000000E+00      0.000000E+00     -5.622912E-05     660
        19       G      1.506881E-04      4.988230E-05      0.000000E+00     661
-CONT-                  0.000000E+00      0.000000E+00     -4.307674E-05     662
        20       G      1.509045E-04      4.883436E-05      0.000000E+00     663
-CONT-                  0.000000E+00      0.000000E+00     -2.931147E-05     664
        21       G      1.507851E-04      4.802931E-05      0.000000E+00     665
-CONT-                  0.000000E+00      0.000000E+00     -1.429626E-05     666
        22       G      1.503266E-04      4.753998E-05      0.000000E+00     667
-CONT-                  0.000000E+00      0.000000E+00      2.299729E-06     668
        23       G      1.495555E-04      4.741774E-05      0.000000E+00     669
-CONT-                  0.000000E+00      0.000000E+00      1.978921E-05     670
        24       G      1.484648E-04      4.771463E-05      0.000000E+00     671
-CONT-                  0.000000E+00      0.000000E+00      3.985265E-05     672
        25       G      1.471096E-04      4.849480E-05      0.000000E+00     673
-CONT-                  0.000000E+00      0.000000E+00      6.102285E-05     674
        26       G      1.455272E-04      4.980847E-05      0.000000E+00     675
-CONT-                  0.000000E+00      0.000000E+00      8.316085E-05     676
        27       G      1.438012E-04      5.170438E-05      0.000000E+00     677
-CONT-                  0.000000E+00      0.000000E+00      1.091213E-04     678
        28       G      1.420277E-04      5.420774E-05      0.000000E+00     679
-CONT-                  0.000000E+00      0.000000E+00      1.327826E-04     680
        29       G      1.402578E-04      5.729396E-05      0.000000E+00     681
-CONT-                  0.000000E+00      0.000000E+00      1.524456E-04     682
        30       G      1.385539E-04      6.098818E-05      0.000000E+00     683
-CONT-                  0.000000E+00      0.000000E+00      1.726395E-04     684
        31       G      1.370257E-04      6.527940E-05      0.000000E+00     685
-CONT-                  0.000000E+00      0.000000E+00      1.910865E-04     686
        32       G      1.357547E-04      7.011503E-05      0.000000E+00     687
-CONT-                  0.000000E+00      0.000000E+00      2.074518E-04     688
        33       G      1.348333E-04      7.544699E-05      0.000000E+00     689
-CONT-                  0.000000E+00      0.000000E+00      2.214036E-04     690
        34       G      1.344219E-04      8.118230E-05      0.000000E+00     691
-CONT-                  0.000000E+00      0.000000E+00      2.283314E-04     692
        35       G      1.345435E-04      8.714997E-05      0.000000E+00     693
-CONT-                  0.000000E+00      0.000000E+00      2.313500E-04     694
        36       G      1.352484E-04      9.323419E-05      0.000000E+00     695
-CONT-                  0.000000E+00      0.000000E+00      2.297464E-04     696
        37       G      1.365600E-04      9.925359E-05      0.000000E+00     697
-CONT-                  0.000000E+00      0.000000E+00      2.237937E-04     698
        38       G      1.384261E-04      1.051076E-04      0.000000E+00     699
-CONT-                  0.000000E+00      0.000000E+00      2.169626E-04     700
        39       G      1.408915E-04      1.106867E-04      0.000000E+00     701
-CONT-                  0.000000E+00      0.000000E+00      2.053472E-04     702
        40       G      1.439713E-04      1.157463E-04      0.000000E+00     703
-CONT-                  0.000000E+00      0.000000E+00      1.875716E-04     704
        41       G      1.475622E-04      1.201655E-04      0.000000E+00     705
-CONT-                  0.000000E+00      0.000000E+00      1.609827E-04     706
        42       G      1.516069E-04      1.238073E-04      0.000000E+00     707
-CONT-                  0.000000E+00      0.000000E+00      1.297966E-04     708
        43       G      1.559730E-04      1.265167E-04      0.000000E+00     709
-CONT-                  0.000000E+00      0.000000E+00      9.911569E-05     710
        44       G      1.604994E-04      1.282801E-04      0.000000E+00     711
-CONT-                  0.000000E+00      0.000000E+00      6.775332E-05     712
        45       G      1.650959E-04      1.290983E-04      0.000000E+00     713
-CONT-                  0.000000E+00      0.000000E+00      3.456708E-05     714
        46       G      1.696519E-04      1.288580E-04      0.000000E+00     715
-CONT-                  0.000000E+00      0.000000E+00      1.150459E-06     716
        47       G      1.740192E-04      1.275691E-04      0.000000E+00     717
-CONT-                  0.000000E+00      0.000000E+00     -3.608588E-05     718
        48       G      1.780751E-04      1.253099E-04      0.000000E+00     719
-CONT-                  0.000000E+00      0.000000E+00     -7.140200E-05     720
        49       G      1.817356E-04      1.221449E-04      0.000000E+00     721
-CONT-                  0.000000E+00      0.000000E+00     -1.018028E-04     722
        50       G      1.849195E-04      1.181474E-04      0.000000E+00     723
-CONT-                  0.000000E+00      0.000000E+00     -1.314518E-04     724
        51       G      1.875289E-04      1.133956E-04      0.000000E+00     725
-CONT-                  0.000000E+00      0.000000E+00     -1.615360E-04     726
        52       G      1.894931E-04      1.080350E-04      0.000000E+00     727
-CONT-                  0.000000E+00      0.000000E+00     -1.871985E-04     728
        53       G      1.908016E-04      1.021634E-04      0.000000E+00     729
-CONT-                  0.000000E+00      0.000000E+00     -2.073830E-04     730
        54       G      1.914115E-04      9.590418E-05      0.000000E+00     731
-CONT-                  0.000000E+00      0.000000E+00     -2.243203E-04     732
        55       G      1.913960E-04      8.942199E-05      0.000000E+00     733
-CONT-                  0.000000E+00      0.000000E+00     -2.382419E-04     734
        56       G      1.907945E-04      8.274907E-05      0.000000E+00     735
-CONT-                  0.000000E+00      0.000000E+00     -2.525529E-04     736
        57       G      1.895588E-04      7.597473E-05      0.000000E+00     737
-CONT-                  0.000000E+00      0.000000E+00     -2.642589E-04     738
        58       G      1.877211E-04      6.922780E-05      0.000000E+00     739
-CONT-                  0.000000E+00      0.000000E+00     -2.723238E-04     740
        59       G      1.853226E-04      6.256504E-05      0.000000E+00     741
-CONT-                  0.000000E+00      0.000000E+00     -2.779641E-04     742
        60       G      1.824025E-04      5.609936E-05      0.000000E+00     743
-CONT-                  0.000000E+00      0.000000E+00     -2.789124E-04     744
        61       G      1.790728E-04      4.988695E-05      0.000000E+00     745
-CONT-                  0.000000E+00      0.000000E+00     -2.782088E-04     746
        62       G      1.753861E-04      4.392887E-05      0.000000E+00     747
-CONT-                  0.000000E+00      0.000000E+00     -2.774985E-04     748
        63       G      1.713727E-04      3.826731E-05      0.000000E+00     749
-CONT-                  0.000000E+00      0.000000E+00     -2.754320E-04     750
        64       G      1.670860E-04      3.294086E-05      0.000000E+00     751
-CONT-                  0.000000E+00      0.000000E+00     -2.721286E-04     752
        65       G      1.625713E-04      2.796068E-05      0.000000E+00     753
-CONT-                  0.000000E+00      0.000000E+00     -2.677242E-04     754
        66       G      1.578809E-04      2.335336E-05      0.000000E+00     755
-CONT-                  0.000000E+00      0.000000E+00     -2.625665E-04     756
        67       G      1.530609E-04      1.912075E-05      0.000000E+00     757
-CONT-                  0.000000E+00      0.000000E+00     -2.556950E-04     758
        68       G      1.481465E-04      1.526888E-05      0.000000E+00     759
-CONT-                  0.000000E+00      0.000000E+00     -2.477327E-04     760
        69       G      1.431960E-04      1.179485E-05      0.000000E+00     761
-CONT-                  0.000000E+00      0.000000E+00     -2.403289E-04     762
        70       G      1.382306E-04      8.680399E-06      0.000000E+00     763
-CONT-                  0.000000E+00      0.000000E+00     -2.324282E-04     764
        71       G      1.332832E-04      5.915043E-06      0.000000E+00     765
-CONT-                  0.000000E+00      0.000000E+00     -2.243397E-04     766
        72       G      1.283815E-04      3.487044E-06      0.000000E+00     767
-CONT-                  0.000000E+00      0.000000E+00     -2.160919E-04     768
        73       G      1.235475E-04      1.381485E-06      0.000000E+00     769
-CONT-                  0.000000E+00      0.000000E+00     -2.078271E-04     770
        74       G      1.188019E-04     -4.152409E-07      0.000000E+00     771
-CONT-                  0.000000E+00      0.000000E+00     -1.995829E-04     772
        75       G      1.141594E-04     -1.919632E-06      0.000000E+00     773
-CONT-                  0.000000E+00      0.000000E+00     -1.914386E-04     774
        76       G      1.096316E-04     -3.142669E-06      0.000000E+00     775
-CONT-                  0.000000E+00      0.000000E+00     -1.832341E-04     776
        77       G      1.113276E-04      6.728849E-05      0.000000E+00     777
-CONT-                  0.000000E+00      0.000000E+00     -2.306940E-04     778
        78       G      1.119289E-04      6.779619E-05      0.000000E+00     779
-CONT-                  0.000000E+00      0.000000E+00     -2.328215E-04     780
        79       G      1.125313E-04      6.830757E-05      0.000000E+00     781
-CONT-                  0.000000E+00      0.000000E+00     -2.346142E-04     782
        80       G      1.131351E-04      6.882322E-05      0.000000E+00     783
-CONT-                  0.000000E+00      0.000000E+00     -2.371164E-04     784
        81       G      1.137397E-04      6.934277E-05      0.000000E+00     785
-CONT-                  0.000000E+00      0.000000E+00     -2.396317E-04     786
        82       G      1.143453E-04      6.986645E-05      0.000000E+00     787
-CONT-                  0.000000E+00      0.000000E+00     -2.413301E-04     788
        83       G      1.149519E-04      7.039467E-05      0.000000E+00     789
-CONT-                  0.000000E+00      0.000000E+00     -2.433607E-04     790
        84       G      1.155595E-04      7.092697E-05      0.000000E+00     791
-CONT-                  0.000000E+00      0.000000E+00     -2.453814E-04     792
        85       G      1.161680E-04      7.146342E-05      0.000000E+00     793
-CONT-                  0.000000E+00      0.000000E+00     -2.474508E-04     794
        86       G      1.167772E-04      7.200386E-05      0.000000E+00     795
-CONT-                  0.000000E+00      0.000000E+00     -2.494955E-04     796
        87       G      1.173872E-04      7.254824E-05      0.000000E+00     797
-CONT-                  0.000000E+00      0.000000E+00     -2.514990E-04     798
        88       G      1.179978E-04      7.309654E-05      0.000000E+00     799
-CONT-                  0.000000E+00      0.000000E+00     -2.534659E-04     800
        89       G      1.186089E-04      7.364873E-05      0.000000E+00     801
-CONT-                  0.000000E+00      0.000000E+00     -2.553850E-04     802
        90       G      1.192205E-04      7.420479E-05      0.000000E+00     803
-CONT-                  0.000000E+00      0.000000E+00     -2.572657E-04     804
        91       G      1.198323E-04      7.476465E-05      0.000000E+00     805
-CONT-                  0.000000E+00      0.000000E+00     -2.590923E-04     806
        92       G      1.204444E-04      7.532832E-05      0.000000E+00     807
-CONT-                  0.000000E+00      0.000000E+00     -2.608941E-04     808
        93       G      1.210565E-04      7.589592E-05      0.000000E+00     809
-CONT-                  0.000000E+00      0.000000E+00     -2.627277E-04     810
        94       G      1.216687E-04      7.646743E-05      0.000000E+00     811
-CONT-                  0.000000E+00      0.000000E+00     -2.646395E-04     812
        95       G      1.222817E-04      7.704284E-05      0.000000E+00     813
-CONT-                  0.000000E+00      0.000000E+00     -2.664159E-04     814
        96       G      1.228947E-04      7.762195E-05      0.000000E+00     815
-CONT-                  0.000000E+00      0.000000E+00     -2.685042E-04     816
        97       G      1.235073E-04      7.820420E-05      0.000000E+00     817
-CONT-                  0.000000E+00      0.000000E+00     -2.707000E-04     818
        98       G      1.241195E-04      7.878987E-05      0.000000E+00     819
-CONT-                  0.000000E+00      0.000000E+00     -2.718748E-04     820
        99       G      1.247313E-04      7.937940E-05      0.000000E+00     821
-CONT-                  0.000000E+00      0.000000E+00     -2.733493E-04     822
       100       G      1.253427E-04      7.997243E-05      0.000000E+00     823
-CONT-                  0.000000E+00      0.000000E+00     -2.748265E-04     824
$TITLE   = MSC.NASTRAN JOB                                                   825
$SUBTITLE=LC_40                                                              826
$LABEL   =                                                                   827
$DISPLACEMENTS                                                               828
$REAL OUTPUT                                                                 829
$SUBCASE ID =           5                                                    830
         1       G      1.413813E-04     -1.743619E-05      0.000000E+00     831
-CONT-                  0.000000E+00      0.000000E+00     -2.137128E-04     832
         2       G      1.437351E-04      7.097903E-05      0.000000E+00     833
-CONT-                  0.000000E+00      0.000000E+00     -1.591875E-04     834
         3       G     -1.196941E-06     -9.196389E-07      0.000000E+00     835
-CONT-                  0.000000E+00      0.000000E+00     -2.364288E-05     836
         4       G      1.057000E-05      0.000000E+00      0.000000E+00     837
-CONT-                  0.000000E+00      0.000000E+00      0.000000E+00     838
         5       G      1.485087E-04      6.471915E-05      0.000000E+00     839
-CONT-                  0.000000E+00      0.000000E+00     -2.745326E-04     840
         6       G      1.479203E-04      7.055872E-05      0.000000E+00     841
-CONT-                  0.000000E+00      0.000000E+00     -1.608221E-04     842
         7       G      1.520451E-04      6.987959E-05      0.000000E+00     843
-CONT-                  0.000000E+00      0.000000E+00     -1.613771E-04     844
         8       G      1.560972E-04      6.896639E-05      0.000000E+00     845
-CONT-                  0.000000E+00      0.000000E+00     -1.612714E-04     846
         9       G      1.600592E-04      6.783591E-05      0.000000E+00     847
-CONT-                  0.000000E+00      0.000000E+00     -1.606317E-04     848
        10       G      1.639112E-04      6.649909E-05      0.000000E+00     849
-CONT-                  0.000000E+00      0.000000E+00     -1.593963E-04     850
        11       G      1.676313E-04      6.496892E-05      0.000000E+00     851
-CONT-                  0.000000E+00      0.000000E+00     -1.574856E-04     852
        12       G      1.711930E-04      6.325832E-05      0.000000E+00     853
-CONT-                  0.000000E+00      0.000000E+00     -1.547675E-04     854
        13       G      1.745705E-04      6.138520E-05      0.000000E+00     855
-CONT-                  0.000000E+00      0.000000E+00     -1.511616E-04     856
        14       G      1.777322E-04      5.936810E-05      0.000000E+00     857
-CONT-                  0.000000E+00      0.000000E+00     -1.464022E-04     858
        15       G      1.806490E-04      5.723647E-05      0.000000E+00     859
-CONT-                  0.000000E+00      0.000000E+00     -1.404890E-04     860
        16       G      1.832913E-04      5.502030E-05      0.000000E+00     861
-CONT-                  0.000000E+00      0.000000E+00     -1.332656E-04     862
        17       G      1.856311E-04      5.275787E-05      0.000000E+00     863
-CONT-                  0.000000E+00      0.000000E+00     -1.246851E-04     864
        18       G      1.876449E-04      5.049374E-05      0.000000E+00     865
-CONT-                  0.000000E+00      0.000000E+00     -1.149341E-04     866
        19       G      1.893146E-04      4.826882E-05      0.000000E+00     867
-CONT-                  0.000000E+00      0.000000E+00     -1.037236E-04     868
        20       G      1.906153E-04      4.614174E-05      0.000000E+00     869
-CONT-                  0.000000E+00      0.000000E+00     -9.169974E-05     870
        21       G      1.915399E-04      4.416231E-05      0.000000E+00     871
-CONT-                  0.000000E+00      0.000000E+00     -7.830591E-05     872
        22       G      1.920578E-04      4.240012E-05      0.000000E+00     873
-CONT-                  0.000000E+00      0.000000E+00     -6.232662E-05     874
        23       G      1.921768E-04      4.092899E-05      0.000000E+00     875
-CONT-                  0.000000E+00      0.000000E+00     -4.475897E-05     876
        24       G      1.918815E-04      3.981722E-05      0.000000E+00     877
-CONT-                  0.000000E+00      0.000000E+00     -2.427413E-05     878
        25       G      1.912072E-04      3.914282E-05      0.000000E+00     879
-CONT-                  0.000000E+00      0.000000E+00     -2.036625E-06     880
        26       G      1.901822E-04      3.897768E-05      0.000000E+00     881
-CONT-                  0.000000E+00      0.000000E+00      2.151583E-05     882
        27       G      1.888813E-04      3.938328E-05      0.000000E+00     883
-CONT-                  0.000000E+00      0.000000E+00      5.012062E-05     884
        28       G      1.873713E-04      4.041208E-05      0.000000E+00     885
-CONT-                  0.000000E+00      0.000000E+00      7.822263E-05     886
        29       G      1.857033E-04      4.208386E-05      0.000000E+00     887
-CONT-                  0.000000E+00      0.000000E+00      1.027100E-04     888
        30       G      1.839565E-04      4.445291E-05      0.000000E+00     889
-CONT-                  0.000000E+00      0.000000E+00      1.279795E-04     890
        31       G      1.822372E-04      4.752738E-05      0.000000E+00     891
-CONT-                  0.000000E+00      0.000000E+00      1.521563E-04     892
        32       G      1.806391E-04      5.128545E-05      0.000000E+00     893
-CONT-                  0.000000E+00      0.000000E+00      1.744313E-04     894
        33       G      1.792597E-04      5.569853E-05      0.000000E+00     895
-CONT-                  0.000000E+00      0.000000E+00      1.950653E-04     896
        34       G      1.782659E-04      6.071411E-05      0.000000E+00     897
-CONT-                  0.000000E+00      0.000000E+00      2.095989E-04     898
        35       G      1.777144E-04      6.618249E-05      0.000000E+00     899
-CONT-                  0.000000E+00      0.000000E+00      2.204340E-04     900
        36       G      1.776835E-04      7.199353E-05      0.000000E+00     901
-CONT-                  0.000000E+00      0.000000E+00      2.271449E-04     902
        37       G      1.782228E-04      7.796986E-05      0.000000E+00     903
-CONT-                  0.000000E+00      0.000000E+00      2.295169E-04     904
        38       G      1.793054E-04      8.401206E-05      0.000000E+00     905
-CONT-                  0.000000E+00      0.000000E+00      2.309058E-04     906
        39       G      1.810132E-04      9.000443E-05      0.000000E+00     907
-CONT-                  0.000000E+00      0.000000E+00      2.272926E-04     908
        40       G      1.833945E-04      9.569780E-05      0.000000E+00     909
-CONT-                  0.000000E+00      0.000000E+00      2.165741E-04     910
        41       G      1.863657E-04      1.009475E-04      0.000000E+00     911
-CONT-                  0.000000E+00      0.000000E+00      1.967630E-04     912
        42       G      1.899039E-04      1.055824E-04      0.000000E+00     913
-CONT-                  0.000000E+00      0.000000E+00      1.705888E-04     914
        43       G      1.938819E-04      1.094059E-04      0.000000E+00     915
-CONT-                  0.000000E+00      0.000000E+00      1.434150E-04     916
        44       G      1.981320E-04      1.123814E-04      0.000000E+00     917
-CONT-                  0.000000E+00      0.000000E+00      1.156214E-04     918
        45       G      2.025891E-04      1.144819E-04      0.000000E+00     919
-CONT-                  0.000000E+00      0.000000E+00      8.493252E-05     920
        46       G      2.071510E-04      1.155458E-04      0.000000E+00     921
-CONT-                  0.000000E+00      0.000000E+00      5.251449E-05     922
        47       G      2.116580E-04      1.155514E-04      0.000000E+00     923
-CONT-                  0.000000E+00      0.000000E+00      1.498412E-05     924
        48       G      2.159825E-04      1.145376E-04      0.000000E+00     925
-CONT-                  0.000000E+00      0.000000E+00     -2.213729E-05     926
        49       G      2.200152E-04      1.125364E-04      0.000000E+00     927
-CONT-                  0.000000E+00      0.000000E+00     -5.498290E-05     928
        50       G      2.236521E-04      1.096050E-04      0.000000E+00     929
-CONT-                  0.000000E+00      0.000000E+00     -8.727083E-05     930
        51       G      2.267841E-04      1.058052E-04      0.000000E+00     931
-CONT-                  0.000000E+00      0.000000E+00     -1.210714E-04     932
        52       G      2.293245E-04      1.012616E-04      0.000000E+00     933
-CONT-                  0.000000E+00      0.000000E+00     -1.514085E-04     934
        53       G      2.312319E-04      9.605755E-05      0.000000E+00     935
-CONT-                  0.000000E+00      0.000000E+00     -1.761534E-04     936
        54       G      2.324451E-04      9.031750E-05      0.000000E+00     937
-CONT-                  0.000000E+00      0.000000E+00     -1.981566E-04     938
        55       G      2.330180E-04      8.420974E-05      0.000000E+00     939
-CONT-                  0.000000E+00      0.000000E+00     -2.172131E-04     940
        56       G      2.329691E-04      7.777182E-05      0.000000E+00     941
-CONT-                  0.000000E+00      0.000000E+00     -2.365276E-04     942
        57       G      2.322397E-04      7.110403E-05      0.000000E+00     943
-CONT-                  0.000000E+00      0.000000E+00     -2.532313E-04     944
        58       G      2.308467E-04      6.433609E-05      0.000000E+00     945
-CONT-                  0.000000E+00      0.000000E+00     -2.659906E-04     946
        59       G      2.288172E-04      5.753353E-05      0.000000E+00     947
-CONT-                  0.000000E+00      0.000000E+00     -2.767185E-04     948
        60       G      2.261848E-04      5.082930E-05      0.000000E+00     949
-CONT-                  0.000000E+00      0.000000E+00     -2.824006E-04     950
        61       G      2.230569E-04      4.429082E-05      0.000000E+00     951
-CONT-                  0.000000E+00      0.000000E+00     -2.856702E-04     952
        62       G      2.194827E-04      3.793073E-05      0.000000E+00     953
-CONT-                  0.000000E+00      0.000000E+00     -2.889894E-04     954
        63       G      2.154903E-04      3.180828E-05      0.000000E+00     955
-CONT-                  0.000000E+00      0.000000E+00     -2.906316E-04     956
        64       G      2.111307E-04      2.597293E-05      0.000000E+00     957
-CONT-                  0.000000E+00      0.000000E+00     -2.906806E-04     958
        65       G      2.064510E-04      2.044890E-05      0.000000E+00     959
-CONT-                  0.000000E+00      0.000000E+00     -2.893264E-04     960
        66       G      2.015061E-04      1.527511E-05      0.000000E+00     961
-CONT-                  0.000000E+00      0.000000E+00     -2.868350E-04     962
        67       G      1.963421E-04      1.046126E-05      0.000000E+00     963
-CONT-                  0.000000E+00      0.000000E+00     -2.826595E-04     964
        68       G      1.910007E-04      6.028388E-06      0.000000E+00     965
-CONT-                  0.000000E+00      0.000000E+00     -2.769938E-04     966
        69       G      1.855451E-04      1.979943E-06      0.000000E+00     967
-CONT-                  0.000000E+00      0.000000E+00     -2.713469E-04     968
        70       G      1.800016E-04     -1.693727E-06      0.000000E+00     969
-CONT-                  0.000000E+00      0.000000E+00     -2.650412E-04     970
        71       G      1.744111E-04     -4.995643E-06      0.000000E+00     971
-CONT-                  0.000000E+00      0.000000E+00     -2.583465E-04     972
        72       G      1.688048E-04     -7.932543E-06      0.000000E+00     973
-CONT-                  0.000000E+00      0.000000E+00     -2.513623E-04     974
        73       G      1.632098E-04     -1.051325E-05      0.000000E+00     975
-CONT-                  0.000000E+00      0.000000E+00     -2.441935E-04     976
        74       G      1.576515E-04     -1.274552E-05      0.000000E+00     977
-CONT-                  0.000000E+00      0.000000E+00     -2.368672E-04     978
        75       G      1.521499E-04     -1.464132E-05      0.000000E+00     979
-CONT-                  0.000000E+00      0.000000E+00     -2.294852E-04     980
        76       G      1.467213E-04     -1.620562E-05      0.000000E+00     981
-CONT-                  0.000000E+00      0.000000E+00     -2.218541E-04     982
        77       G      1.492296E-04      6.520631E-05      0.000000E+00     983
-CONT-                  0.000000E+00      0.000000E+00     -2.764740E-04     984
        78       G      1.499513E-04      6.569723E-05      0.000000E+00     985
-CONT-                  0.000000E+00      0.000000E+00     -2.783217E-04     986
        79       G      1.506735E-04      6.619139E-05      0.000000E+00     987
[...]
        80                          *TOTALS*                               31225
-CONT-                 -5.340173E-14      8.659740E-14      0.000000E+00   31226
-CONT-                  0.000000E+00      0.000000E+00      1.270549E-21   31227
        81                          APP-LOAD                               31228
-CONT-                  7.984779E-01      3.486229E-02      0.000000E+00   31229
-CONT-                  0.000000E+00      0.000000E+00      0.000000E+00   31230
        81             27289        QUAD4                                  31231
-CONT-                 -4.849883E-01     -2.226163E-01      0.000000E+00   31232
-CONT-                  0.000000E+00      0.000000E+00     -6.034893E-10   31233
        81             27292        QUAD4                                  31234
-CONT-                 -3.134896E-01      1.877539E-01      0.000000E+00   31235
-CONT-                  0.000000E+00      0.000000E+00      6.034893E-10   31236
        81                          *TOTALS*                               31237
-CONT-                  7.105427E-15     -3.108624E-14      0.000000E+00   31238
-CONT-                  0.000000E+00      0.000000E+00      1.355253E-20   31239
        82                          APP-LOAD                               31240
-CONT-                  7.978088E-01      4.181138E-02      0.000000E+00   31241
-CONT-                  0.000000E+00      0.000000E+00      0.000000E+00   31242
        82             27292        QUAD4                                  31243
-CONT-                 -4.112032E-01     -2.256480E-01      0.000000E+00   31244
-CONT-                  0.000000E+00      0.000000E+00     -4.668340E-10   31245
        82             37329        QUAD4                                  31246
-CONT-                 -3.866056E-01      1.838366E-01      0.000000E+00   31247
-CONT-                  0.000000E+00      0.000000E+00      4.668340E-10   31248
        82                          *TOTALS*                               31249
-CONT-                 -7.549517E-14      8.659740E-14      0.000000E+00   31250
-CONT-                  0.000000E+00      0.000000E+00      1.355253E-20   31251
        83                          APP-LOAD                               31252
-CONT-                  7.970184E-01      4.874774E-02      0.000000E+00   31253
-CONT-                  0.000000E+00      0.000000E+00      0.000000E+00   31254
        83             37329        QUAD4                                  31255
-CONT-                 -4.031721E-01     -2.241198E-01      0.000000E+00   31256
-CONT-                  0.000000E+00      0.000000E+00     -5.076478E-10   31257
        83             37332        QUAD4                                  31258
-CONT-                 -3.938464E-01      1.753720E-01      0.000000E+00   31259
-CONT-                  0.000000E+00      0.000000E+00      5.076478E-10   31260
        83                          *TOTALS*                               31261
-CONT-                 -7.449596E-14     -6.661338E-15      0.000000E+00   31262
-CONT-                  0.000000E+00      0.000000E+00      2.117582E-21   31263
        84                          APP-LOAD                               31264
-CONT-                  7.961072E-01      5.566924E-02      0.000000E+00   31265
-CONT-                  0.000000E+00      0.000000E+00      0.000000E+00   31266
        84             17346        QUAD4                                  31267
-CONT-                 -4.013996E-01      1.668797E-01      0.000000E+00   31268
-CONT-                  0.000000E+00      0.000000E+00      5.159120E-10   31269
        84             37332        QUAD4                                  31270
-CONT-                 -3.947077E-01     -2.225490E-01      0.000000E+00   31271
-CONT-                  0.000000E+00      0.000000E+00     -5.159120E-10   31272
        84                          *TOTALS*                               31273
-CONT-                  5.506706E-14      2.220446E-14      0.000000E+00   31274
-CONT-                  0.000000E+00      0.000000E+00     -1.990527E-20   31275
        85                          APP-LOAD                               31276
-CONT-                  7.950753E-01      6.257379E-02      0.000000E+00   31277
-CONT-                  0.000000E+00      0.000000E+00      0.000000E+00   31278
        85             17345        QUAD4                                  31279
-CONT-                 -3.977609E-01      1.509224E-01      0.000000E+00   31280
-CONT-                  0.000000E+00      0.000000E+00      5.265212E-10   31281
        85             17346        QUAD4                                  31282
-CONT-                 -3.973144E-01     -2.134962E-01      0.000000E+00   31283
-CONT-                  0.000000E+00      0.000000E+00     -5.265212E-10   31284
        85                          *TOTALS*                               31285
-CONT-                 -3.552159E-13     -7.105427E-15      0.000000E+00   31286
-CONT-                  0.000000E+00      0.000000E+00      2.117582E-21   31287
        86                          APP-LOAD                               31288
-CONT-                  7.939231E-01      6.945927E-02      0.000000E+00   31289
-CONT-                  0.000000E+00      0.000000E+00      0.000000E+00   31290
        86             17323        QUAD4                                  31291
-CONT-                 -3.939415E-01      1.359390E-01      0.000000E+00   31292
-CONT-                  0.000000E+00      0.000000E+00      5.419653E-10   31293
        86             17345        QUAD4                                  31294
-CONT-                 -3.999816E-01     -2.053983E-01      0.000000E+00   31295
-CONT-                  0.000000E+00      0.000000E+00     -5.419653E-10   31296
        86                          *TOTALS*                               31297
-CONT-                 -5.162537E-15     -6.217249E-15      0.000000E+00   31298
-CONT-                  0.000000E+00      0.000000E+00     -2.117582E-21   31299
        87                          APP-LOAD                               31300
-CONT-                  7.926509E-01      7.632360E-02      0.000000E+00   31301
-CONT-                  0.000000E+00      0.000000E+00      0.000000E+00   31302
        87             17322        QUAD4                                  31303
-CONT-                 -3.927688E-01      1.209718E-01      0.000000E+00   31304
-CONT-                  0.000000E+00      0.000000E+00      5.471441E-10   31305
        87             17323        QUAD4                                  31306
-CONT-                 -3.998821E-01     -1.972954E-01      0.000000E+00   31307
-CONT-                  0.000000E+00      0.000000E+00     -5.471441E-10   31308
        87                          *TOTALS*                               31309
-CONT-                 -1.566525E-13      2.753353E-14      0.000000E+00   31310
-CONT-                  0.000000E+00      0.000000E+00      2.329341E-20   31311
        88                          APP-LOAD                               31312
-CONT-                  7.912591E-01      8.316468E-02      0.000000E+00   31313
-CONT-                  0.000000E+00      0.000000E+00      0.000000E+00   31314
        88             17318        QUAD4                                  31315
-CONT-                 -3.913479E-01      1.067137E-01      0.000000E+00   31316
-CONT-                  0.000000E+00      0.000000E+00      5.629421E-10   31317
        88             17322        QUAD4                                  31318
-CONT-                 -3.999112E-01     -1.898783E-01      0.000000E+00   31319
-CONT-                  0.000000E+00      0.000000E+00     -5.629421E-10   31320
        88                          *TOTALS*                               31321
-CONT-                 -5.961898E-14     -3.064216E-14      0.000000E+00   31322
-CONT-                  0.000000E+00      0.000000E+00     -2.117582E-20   31323
        89                          APP-LOAD                               31324
-CONT-                  7.897481E-01      8.998042E-02      0.000000E+00   31325
-CONT-                  0.000000E+00      0.000000E+00      0.000000E+00   31326
        89             17317        QUAD4                                  31327
-CONT-                 -3.913012E-01      9.446515E-02      0.000000E+00   31328
-CONT-                  0.000000E+00      0.000000E+00      5.797291E-10   31329
        89             17318        QUAD4                                  31330
-CONT-                 -3.984469E-01     -1.844456E-01      0.000000E+00   31331
-CONT-                  0.000000E+00      0.000000E+00     -5.797291E-10   31332
        89                          *TOTALS*                               31333
-CONT-                 -4.540812E-14      3.375078E-14      0.000000E+00   31334
-CONT-                  0.000000E+00      0.000000E+00      2.964615E-21   31335
        90                          APP-LOAD                               31336
-CONT-                  7.881183E-01      9.676876E-02      0.000000E+00   31337
-CONT-                  0.000000E+00      0.000000E+00      0.000000E+00   31338
        90             17239        QUAD4                                  31339
-CONT-                 -3.910909E-01      8.231161E-02      0.000000E+00   31340
-CONT-                  0.000000E+00      0.000000E+00      6.054258E-10   31341
        90             17317        QUAD4                                  31342
-CONT-                 -3.970274E-01     -1.790804E-01      0.000000E+00   31343
-CONT-                  0.000000E+00      0.000000E+00     -6.054258E-10   31344
        90                          *TOTALS*                               31345
-CONT-                 -5.595524E-14      3.286260E-14      0.000000E+00   31346
-CONT-                  0.000000E+00      0.000000E+00      1.185846E-20   31347
        91                          APP-LOAD                               31348
-CONT-                  7.863704E-01      1.035276E-01      0.000000E+00   31349
-CONT-                  0.000000E+00      0.000000E+00      0.000000E+00   31350
        91             17238        QUAD4                                  31351
-CONT-                 -3.902670E-01      7.229204E-02      0.000000E+00   31352
-CONT-                  0.000000E+00      0.000000E+00      6.475099E-10   31353
        91             17239        QUAD4                                  31354
-CONT-                 -3.961034E-01     -1.758197E-01      0.000000E+00   31355
-CONT-                  0.000000E+00      0.000000E+00     -6.475099E-10   31356
        91                          *TOTALS*                               31357
-CONT-                  1.383338E-13     -5.329071E-14      0.000000E+00   31358
-CONT-                  0.000000E+00      0.000000E+00      6.352747E-21   31359
        92                          APP-LOAD                               31360
-CONT-                  7.845047E-01      1.102549E-01      0.000000E+00   31361
-CONT-                  0.000000E+00      0.000000E+00      0.000000E+00   31362
        92             17215        QUAD4                                  31363
-CONT-                 -3.894941E-01      6.167275E-02      0.000000E+00   31364
-CONT-                  0.000000E+00      0.000000E+00      6.714779E-10   31365
        92             17238        QUAD4                                  31366
-CONT-                 -3.950106E-01     -1.719277E-01      0.000000E+00   31367
-CONT-                  0.000000E+00      0.000000E+00     -6.714779E-10   31368
        92                          *TOTALS*                               31369
-CONT-                 -1.731948E-14      2.753353E-14      0.000000E+00   31370
-CONT-                  0.000000E+00      0.000000E+00     -1.482308E-20   31371
        93                          APP-LOAD                               31372
-CONT-                  7.825219E-01      1.169487E-01      0.000000E+00   31373
-CONT-                  0.000000E+00      0.000000E+00      0.000000E+00   31374
        93             17214        QUAD4                                  31375
-CONT-                 -3.784867E-01      5.192437E-02      0.000000E+00   31376
-CONT-                  0.000000E+00      0.000000E+00      7.499023E-10   31377
        93             17215        QUAD4                                  31378
-CONT-                 -4.040352E-01     -1.688731E-01      0.000000E+00   31379
-CONT-                  0.000000E+00      0.000000E+00     -7.499023E-10   31380
        93                          *TOTALS*                               31381
-CONT-                 -1.471046E-13      1.065814E-14      0.000000E+00   31382
-CONT-                  0.000000E+00      0.000000E+00     -5.505714E-21   31383
        94                          APP-LOAD                               31384
-CONT-                  7.804226E-01      1.236068E-01      0.000000E+00   31385
-CONT-                  0.000000E+00      0.000000E+00      0.000000E+00   31386
        94             17214        QUAD4                                  31387
-CONT-                 -4.125610E-01     -1.649760E-01      0.000000E+00   31388
-CONT-                  0.000000E+00      0.000000E+00     -7.684000E-10   31389
        94             25720        QUAD4                                  31390
-CONT-                 -3.678617E-01      4.136924E-02      0.000000E+00   31391
-CONT-                  0.000000E+00      0.000000E+00      7.684000E-10   31392
        94                          *TOTALS*                               31393
-CONT-                 -1.846301E-13      1.154632E-14      0.000000E+00   31394
-CONT-                  0.000000E+00      0.000000E+00      0.000000E+00   31395
        95                          APP-LOAD                               31396
-CONT-                  7.782074E-01      1.302273E-01      0.000000E+00   31397
-CONT-                  0.000000E+00      0.000000E+00      0.000000E+00   31398
        95             25719        QUAD4                                  31399
-CONT-                 -4.150721E-01      3.626089E-03      0.000000E+00   31400
-CONT-                  0.000000E+00      0.000000E+00      5.580871E-10   31401
        95             25720        QUAD4                                  31402
-CONT-                 -3.631354E-01     -1.338533E-01      0.000000E+00   31403
-CONT-                  0.000000E+00      0.000000E+00     -5.580871E-10   31404
        95                          *TOTALS*                               31405
-CONT-                  1.350031E-13     -2.930989E-14      0.000000E+00   31406
-CONT-                  0.000000E+00      0.000000E+00     -1.270549E-21   31407
        96                          APP-LOAD                               31408
-CONT-                  7.758771E-01      1.368081E-01      0.000000E+00   31409
-CONT-                  0.000000E+00      0.000000E+00      0.000000E+00   31410
        96             25719        QUAD4                                  31411
-CONT-                 -3.149496E-01     -1.065390E-01      0.000000E+00   31412
-CONT-                  0.000000E+00      0.000000E+00     -4.972924E-10   31413
        96             28309        QUAD4                                  31414
-CONT-                 -1.833429E-01      6.589548E-03      0.000000E+00   31415
-CONT-                  0.000000E+00      0.000000E+00      5.956393E-10   31416
        96             28316        QUAD4                                  31417
-CONT-                 -2.775846E-01     -3.685864E-02      0.000000E+00   31418
-CONT-                  0.000000E+00      0.000000E+00     -9.834682E-11   31419
        96                          *TOTALS*                               31420
-CONT-                  1.150191E-13      4.352074E-14      0.000000E+00   31421
-CONT-                  0.000000E+00      0.000000E+00      5.548066E-20   31422
        97                          APP-LOAD                               31423
-CONT-                  7.734322E-01      1.433472E-01      0.000000E+00   31424
-CONT-                  0.000000E+00      0.000000E+00      0.000000E+00   31425
        97             28309        QUAD4                                  31426
-CONT-                 -5.093969E-01     -1.264566E-01      0.000000E+00   31427
-CONT-                  0.000000E+00      0.000000E+00     -7.372191E-10   31428
        97             28312        QUAD4                                  31429
-CONT-                 -2.640353E-01     -1.689061E-02      0.000000E+00   31430
-CONT-                  0.000000E+00      0.000000E+00      7.372191E-10   31431
        97                          *TOTALS*                               31432
-CONT-                  9.281464E-14      8.881784E-15      0.000000E+00   31433
-CONT-                  0.000000E+00      0.000000E+00     -2.625802E-20   31434
        98                          APP-LOAD                               31435
-CONT-                  7.708735E-01      1.498426E-01      0.000000E+00   31436
-CONT-                  0.000000E+00      0.000000E+00      0.000000E+00   31437
        98             17142        QUAD4                                  31438
-CONT-                 -3.443224E-01     -4.213576E-02      0.000000E+00   31439
-CONT-                  0.000000E+00      0.000000E+00      5.791211E-10   31440
        98             28312        QUAD4                                  31441
-CONT-                 -4.265512E-01     -1.077069E-01      0.000000E+00   31442
-CONT-                  0.000000E+00      0.000000E+00     -5.791211E-10   31443
        98                          *TOTALS*                               31444
-CONT-                  6.350476E-14     -6.217249E-15      0.000000E+00   31445
-CONT-                  0.000000E+00      0.000000E+00     -1.185846E-20   31446
        99                          APP-LOAD                               31447
-CONT-                  7.682019E-01      1.562925E-01      0.000000E+00   31448
-CONT-                  0.000000E+00      0.000000E+00      0.000000E+00   31449
        99             17141        QUAD4                                  31450
-CONT-                 -3.666068E-01     -5.834381E-02      0.000000E+00   31451
-CONT-                  0.000000E+00      0.000000E+00      5.933933E-10   31452
        99             17142        QUAD4                                  31453
-CONT-                 -4.015951E-01     -9.794865E-02      0.000000E+00   31454
-CONT-                  0.000000E+00      0.000000E+00     -5.933933E-10   31455
        99                          *TOTALS*                               31456
-CONT-                 -1.396661E-13      1.243450E-14      0.000000E+00   31457
-CONT-                  0.000000E+00      0.000000E+00      2.202286E-20   31458
       100                          APP-LOAD                               31459
-CONT-                  7.654182E-01      1.626946E-01      0.000000E+00   31460
-CONT-                  0.000000E+00      0.000000E+00      0.000000E+00   31461
       100             17114        QUAD4                                  31462
-CONT-                 -3.887911E-01     -7.586093E-02      0.000000E+00   31463
-CONT-                  0.000000E+00      0.000000E+00      5.816849E-10   31464
       100             17141        QUAD4                                  31465
-CONT-                 -3.766271E-01     -8.683373E-02      0.000000E+00   31466
-CONT-                  0.000000E+00      0.000000E+00     -5.816849E-10   31467
       100                          *TOTALS*                               31468
-CONT-                 -1.856293E-13      3.108624E-14      0.000000E+00   31469
-CONT-                  0.000000E+00      0.000000E+00      1.270549E-20   31470
