$NODES
GRID        9000    90012392.082-428.685884.3833    9001
GRID        9001    9001 2391.85-428.977884.8707    9001
GRID        9002    90012392.692-429.126 885.182    9001
GRID        9003    90012391.972-428.824884.6146    9001
GRID        9004    9001 2392.05-427.982884.8039    9001
GRID        9005    90012391.819-428.288885.2829    9001
GRID        9006    90012392.661-428.436885.5941    9001
GRID        9007    90012391.941-428.127885.0312    9001
$ELEMENTS_WITH_PROPERTIES
$ Femap with NX Nastran Property 1 : dummy plate
PSHELL      9000    9001      .1    9001            9001
CQUAD4      9003    9000    9001    9005    9006    9002
CQUAD4      9004    9000    9001    9003    9007    9005
CQUAD4      9005    9000    9003    9000    9004    9007
$ Femap with NX Nastran Property 2 : dummy solid
PSOLID      9001    9000
CPENTA      9000    9001    9001    9002    9003    9005    9006    9007
$ Femap with NX Nastran Property 3 : dummy bar
$ Femap with NX Nastran PropShape 3 : 5,0,0.1,0.,0.,0.,0.,0.
$ Femap with NX Nastran PropOrient 3 : 5,0,0.,1.,2.,3.,4.,-1.,0.,0.
PBAR        9002    9000.0314159 7.854-5 7.854-51.5695-4
                     -.1      .1                      .1     -.1
        .8861787.8861755
CBAR        9001    9002    9000    9002.3187958.8231729-.469846
$ Femap with NX Nastran Property 4 : dummy beam
$ Femap with NX Nastran PropShape 4 : 5,0,0.2,0.,0.,0.,0.,0.
$ Femap with NX Nastran PropOrient 4 : 5,0,0.,1.,2.,3.,4.,-1.,0.,0.
PBEAM       9003    9000 .125664.0012566.0012566        .0025112
                     -.2      .2                      .2     -.2
            YESA      1.      0.
        .8861727.8861727
              1.      1.
CBEAM       9002    9003    9000    9006.3187958.8231729-.469846     GGG
$ Femap with NX Nastran Property 5 : dummy pcomp
PCOMP       9004
            9000      .1      0.     YES    9000      .1     45.     YES
CTRIA3      9006    9004    9002    9000    9006
$MATERIALS
$ Femap with NX Nastran Material 1 : dummy
MAT1        9000    1.+7             .33      .1
$ Femap with NX Nastran Material 2 : dummy 2d ortho
MAT8        9001 100000.1000000.      .3   1000.  10000.   1000.      .1
$RIGID ELEMENTS
RBE2        9000    9004  123456    9006
RBE3        9001            9005     123      1.     123    9007    9003
$COORDS
$ Femap with NX Nastran Coordinate System 4 : dummy
CORD2R      9001              5.      7.      3. 5.342026.5301543.813798
        5.9254177.3187962.795126
