NASTRAN SYSTEM(654)=1
$
NASTRAN ACFORM=0
NASTRAN SYSTEM(503)=0
$ ID acmodl,nonidentical
ID NXN, AC10804
$ID ACMODL, AC10804
SOL 108
TIME 120
CEND
TITLE=10 BY 10 ACOUSTIC ELEMENT WITH 40 BY 40 STRUCTURE ELEMEN AC10804
SUBTITLE=NON-MATCHING MESH
$STRUCTURE MESH IS SMALLER THAN FLUID MESH
SET 77=121,THRU,131
SET 88=243,THRU,264
OLOAD=77
DLOAD=100
FREQ=200
PARAM,USETPRT,0
PARAM,DDRMM,-1
$PARAM,POST,0
$ WE CAN NOT DO DDRMM FOR FLUID-STRUCTURE
$ FOR MODAL PARTICIPATION FACTORS
PARAM,FLUIDMP,2
PARAM,STRUCTMP,3
PARAM,PANELMP,3
$
DISP=88
PRES=88
STRESS = 88
SPC =1313
FORCE=88
$
$ MODAL REDUCTION ON BOTH
$
METHOD=30
METHOD(FLUID)=20
LOADSET=2000
BEGIN BULK
PARAM       POST      -1
PARAM   AUTOSPC YES
$ DYNAMIC LOADING
LSEQ    2000    101     1101
ACSRCE  100     101                     1001    1.      1.
SLOAD   1101    121     15625.
SLOAD   1101    122     15625.
SLOAD   1101    123     15625.
SLOAD   1101    124     15625.
SLOAD   1101    125     15625.
SLOAD   1101    126     15625.
SLOAD   1101    127     15625.
SLOAD   1101    128     15625.
SLOAD   1101    129     15625.
$ THE LOAD IS (2*PI)^2 *F^2 SO WHEN Q IS CALCULATED IT BECOMES A CONSTANT
$ FOR ALL FREQUENCIES
TABLED4 1001    0.0     1.0     0.0     1.E6
        0.0     0.0     39.478420.0     ENDT
$ FRQUENCY RANGE
FREQ1   200     0.0     1.0     5
$ METHOD CARD FOR EIGEN VALUE
$PARAM,NEWSEQ,-1
EIGRL   30      -0.001          50
EIGRL   20      -0.001          50
$
$FLUID ELEMENTS
GRID    1               0.0     0.0     -1.     -1
GRID    2               1.      0.0     -1.     -1
GRID    3               2.      0.0     -1.     -1
GRID    4               3.      0.0     -1.     -1
GRID    5               4.      0.0     -1.     -1
GRID    6               5.      0.0     -1.     -1
GRID    7               6.      0.0     -1.     -1
GRID    8               7.      0.0     -1.     -1
GRID    9               8.      0.0     -1.     -1
GRID    10              9.      0.0     -1.     -1
GRID    11              10.     0.0     -1.     -1
GRID    12              0.0     1.      -1.     -1
GRID    13              1.      1.      -1.     -1
GRID    14              2.      1.      -1.     -1
GRID    15              3.      1.      -1.     -1
GRID    16              4.      1.      -1.     -1
GRID    17              5.      1.      -1.     -1
GRID    18              6.      1.      -1.     -1
GRID    19              7.      1.      -1.     -1
GRID    20              8.      1.      -1.     -1
$ ... 222 like lines cut
$structure grids
GRID    243             .5      .5      -1.
GRID    244             .725    .5      -1.
GRID    245             .95     .5      -1.
GRID    246             1.175   .5      -1.
GRID    247             1.4     .5      -1.
GRID    248             1.625   .5      -1.
GRID    249             1.85    .5      -1.
GRID    250             2.075   .5      -1.
GRID    251             2.3     .5      -1.
GRID    252             2.525   .5      -1.
GRID    253             2.75    .5      -1.
GRID    254             2.975   .5      -1.
GRID    255             3.2     .5      -1.
GRID    256             3.425   .5      -1.
GRID    257             3.65    .5      -1.
GRID    258             3.875   .5      -1.
GRID    259             4.1     .5      -1.
GRID    260             4.325   .5      -1.
GRID    261             4.55    .5      -1.
GRID    262             4.775   .5      -1.
$ ... 1661 like lines cut
$
$ STRUCTURAL PROPERTIES
$234567812345678123456781234567812345678
$ klk changed the thickness on pshell to make answers reasonable
PSHELL         1     442 .400000     442
$PSHELL         1     442 40.0000     442
MAT1         442 21000.0 8000.00 0.3125  1.000-9
CQUAD4  101     1       243     244     285     284
CQUAD4  102     1       244     245     286     285
CQUAD4  103     1       245     246     287     286
CQUAD4  104     1       246     247     288     287
CQUAD4  105     1       247     248     289     288
CQUAD4  106     1       248     249     290     289
CQUAD4  107     1       249     250     291     290
CQUAD4  108     1       250     251     292     291
CQUAD4  109     1       251     252     293     292
CQUAD4  110     1       252     253     294     293
CQUAD4  111     1       253     254     295     294
CQUAD4  112     1       254     255     296     295
CQUAD4  113     1       255     256     297     296
CQUAD4  114     1       256     257     298     297
CQUAD4  115     1       257     258     299     298
CQUAD4  116     1       258     259     300     299
CQUAD4  117     1       259     260     301     300
CQUAD4  118     1       260     261     302     301
CQUAD4  119     1       261     262     303     302
CQUAD4  120     1       262     263     304     303
$ ... 1580 like lines cut
$
CHEXA   1       99      1       122     123     2       12      133     +
+       134     13
CHEXA   2       99      2       123     124     3       13      134     +
+       135     14
CHEXA   3       99      3       124     125     4       14      135     +
+       136     15
CHEXA   4       99      4       125     126     5       15      136     +
+       137     16
CHEXA   5       99      5       126     127     6       16      137     +
+       138     17
CHEXA   6       99      6       127     128     7       17      138     +
+       139     18
CHEXA   7       99      7       128     129     8       18      139     +
+       140     19
CHEXA   8       99      8       129     130     9       19      140     +
+       141     20
CHEXA   9       99      9       130     131     10      20      141     +
+       142     21
CHEXA   10      99      10      131     132     11      21      142     +
+       143     22
CHEXA   11      99      12      133     134     13      23      144     +
+       145     24
CHEXA   12      99      13      134     135     14      24      145     +
+       146     25
CHEXA   13      99      14      135     136     15      25      146     +
+       147     26
CHEXA   14      99      15      136     137     16      26      147     +
+       148     27
CHEXA   15      99      16      137     138     17      27      148     +
+       149     28
CHEXA   16      99      17      138     139     18      28      149     +
+       150     29
CHEXA   17      99      18      139     140     19      29      150     +
+       151     30
CHEXA   18      99      19      140     141     20      30      151     +
+       152     31
CHEXA   19      99      20      141     142     21      31      152     +
+       153     32
CHEXA   20      99      21      142     143     22      32      153     +
+       154     33
$ ... 160 like lines cut
$ FLUID PROPERTIES
PSOLID   99     445                             1       PFLUID
$234567812345678123456781234567812345678
mat10   445     .01388891.219-12
ACMODL  DIFF
$ THE ELASTIC SPRINGS OF THE FOUNDATION
$ SPRINGS FROM THE QUAD4'S TO THE GROUND
$ KIZ CORRECTED TO THE VALUE IN THE REFERENCE
$ I.E. .1 IS CHANGED TO .125
$ AT CORNERS HALF SPRINGS (THE K IS/UNIT LENGTH SO AT CORNERS ITS HALF)
$CELAS2  1007    .25     1       3
$CELAS2  1008    .25     121     3
$CELAS2  1009    .25     11      3
$CELAS2  1010    .25     101     3
$
CELAS2  2007    .25     1       3
CELAS2  2008    .25     121     3
CELAS2  2009    .25     11      3
CELAS2  2010    .25     101     3
$
$ SPC ALL THE STRUCTRUAL POINTS NOT TO ROTATE ABOUT X OR Z
SPC1    1313    1246     243    THRU    1923
$ THIS SPC ADDED BY KLK TO REMOVE RIGID BODY MODES FROM STRUCT
$ TO MAKE ANSWERS THE SAME ACROSS MACHINES
SPC1,1313,3,243,283,1882,1923
ENDDATA
