ID MSC, AC10901A $ V69 KLK 13-MAR-1996
SOL 109 $ FREQUENCY RESPONSE
TIME 100
DIAG 8,12 $ PRINT EXTRA STUFF
CEND
TITL=RECT.VOLUME (1X1X1)-3 SIDES FIXED,MODAL REDUCTION ON BOTH AC10901A
SUBTITLE= FLUID-STRUCTURE INTERACTION,4TH SIDE ON BEAM ON ELAST. FOUND.
LABEL= RESIDUAL ONLY                                                
DLOAD=100
TSTEP=27 $
PARAM,USETPRT,0
PARAM,DDRMM,-1
PARAM,FLUIDMP,2
PARAM,STRUCTMP,3
PARAM,PANELMP,3
PARAM,GFL,2.0
PARAM,W3FL,.3
param,g,2.0
param,w3,2.
set 10 = 292 $
set 20 = 92, 1001 $
DISP=10  
STRESS = 20  
STRAIN = ALL
SPC =1313
FORCE=20   
METHOD=30
METHOD(FLUID)=20
BEGIN BULK
TSTEP   27      40000   0.0005  100
TABLED1 1001                                                            +T1
+T1     0.0     0.0     0.05    1.47E+010.09    0.0     0.4     0.0     +T2
+T2     ENDT
TLOAD1  100     1101            1       1001
DAREA   1101    120             1.
DAREA   1101    124             1.
DAREA   1101    220             1.
DAREA   1101    224             1.
DAREA   1101    293             2.
DAREA   1101    122             2.
DAREA   1101    294             2.
DAREA   1101    319             2.
DAREA   1101    222             2.
DAREA   1101    320             2.
EIGRL   30      -0.001          50
EIGRL   20      -0.001          50
GRDSET                                          -1
GRID    100             0.0     0.0     0.0
GRID    102             0.5     0.0     0.0
GRID    104             1.0     0.0     0.0
GRID    120             0.0     0.0     1.0
GRID    122             0.5     0.0     1.0
GRID    124             1.0     0.0     1.0
GRID    200             0.0     0.2     0.0
GRID    202             0.5     0.2     0.0
GRID    204             1.0     0.2     0.0
GRID    220             0.0     0.2     1.0
GRID    222             0.5     0.2     1.0
GRID    224             1.0     0.2     1.0
GRID    267     0       0.25    0.0     0.0
GRID    269     0       0.75    0.0     0.0
GRID    270     0       0.25    0.2     0.0
GRID    272     0       0.75    0.2     0.0
GRID    276     0       0.25    0.0     0.25
GRID    277     0       0.5     0.0     0.25
GRID    279     0       0.25    0.2     0.25
GRID    280     0       0.5     0.2     0.25
$ ... 30 like lines cut
PSOLID  100     25                              1       PFLUID
MAT10   25      1.      0.1
CPENTA  87      100     267     202     270     276     280     279
CPENTA  88      100     267     102     202     276     277     280
CPENTA  91      100     276     280     279     282     286     285
CPENTA  92      100     276     277     280     282     283     286
CPENTA  95      100     282     286     285     288     292     291
CPENTA  96      100     282     283     286     288     289     292
CPENTA  99      100     288     292     291     293     222     294
CPENTA  100     100     288     289     292     293     122     222
CHEXA   107     100     102     269     302     277     202     272     +
+       305     280
CHEXA   108     100     269     104     303     302     272     204     +
+       306     305
CHEXA   109     100     277     302     308     283     280     305     +
+       311     286
CHEXA   110     100     302     303     309     308     305     306     +
+       312     311
CHEXA   111     100     283     308     314     289     286     311     +
+       317     292
CHEXA   112     100     308     309     315     314     311     312     +
+       318     317
CHEXA   113     100     289     314     319     122     292     317     +
+       320     222
CHEXA   114     100     314     315     124     319     317     318     +
+       224     320
CHEXA   121     100     100     267     276     325     200     270     +
+       279     327
CHEXA   122     100     325     276     282     329     327     279     +
+       285     331
CHEXA   123     100     329     282     288     333     331     285     +
+       291     335
CHEXA   124     100     333     288     293     120     335     291     +
+       294     220
GRID    41              0.0     0.0     0.0     0
GRID    45              1.0     0.0     0.0     0
GRID    61              0.0     0.2     0.0     0
GRID    65              1.0     0.2     0.0     0
GRID    43              0.5     0.0     0.0     0
GRID    63              0.5     0.2     0.0     0
GRID    321     0       0.25    0.0     0.0     0
GRID    322     0       0.25    0.2     0.0     0
GRID    323     0       0.75    0.0     0.0     0
GRID    324     0       0.75    0.2     0.0     0
CTRIA3  117     100     321     63      322
CTRIA3  118     100     321     43      63
CQUAD4  119     100     43      323     324     63
CQUAD4  120     100     323     45      65      324
CQUAD4  125     100     41      321     322     61
PSHELL  100     77      .05     77      1.0
MAT1    77      100.            .333    1.000
CELAS2  1001    .125    323     3
CELAS2  1002    .125    324     3
CELAS2  1003    .1458333321     3
CELAS2  1004    .1041667322     3
CELAS2  1005    .104166743      3
CELAS2  1006    .145833363      3
CELAS2  1007    .0625   61      3
CELAS2  1008    .0625   65      3
CELAS2  1009    .0625   41      3
CELAS2  1010    .0625   45      3
SPC1    1313    1246    41      THRU    65
SPC1    1313    1246    321     THRU    324
SPC1    1313    5       41      61      65      45
PANEL   FIFTH   555
SET1    111     41      45      65      61
SET1    222     41      42      62      61
SET1    333     43      44      63      64
SET1    444     44      45      64      65
SET1    555     41      THRU    65      321     THRU    324
SET1    666     100     THRU    320     325     THRU    400
ACMODL  IDENT   ALL     666     555
PARAM,POST,-1
ENDDATA
