ID MSC, B3BEND $ v2005 nj_teng 28-Mar-2005
$ Modified 31-Aug-2005 v2006 ng_teng
$$$$$$$$$$$$$$$$$$$$$$$$$$$$$$$$$$$$$$$$$$$$$$$$$$$$$$$$$$$$$$$$$$$$$$$$$$$$$$
$
$  This deck compares CBEAM3 results with CBEAM and CBEND with force and
$  thermal loads. ESE and GPFORCE are requested.
$
$$$$$$$$$$$$$$$$$$$$$$$$$$$$$$$$$$$$$$$$$$$$$$$$$$$$$$$$$$$$$$$$$$$$$$$$$$$$$$
SOL 101
CEND
TITLE    = CBEAM, CBEAM3 AND CBEND ELEMENTS 
SUBTITLE = Static and thermal loads 
ECHO = sort
SPC = 1
$DISP   = ALL
FORCE  = ALL
STRESS = ALL
STRAIN = ALL
FLUX = ALL
$
ESE = all
$GPFORCE = all
$
SUBCASE 1
   LABEL = STATIC LOAD
   LOAD = 1
SUBCASE 2
   LABEL = THERMAL LOAD, uniform axial temp, zero gradients
   TEMP(LOAD) = 2
$
BEGIN BULK
param,post,-1
$-------2-------3-------4-------5-------6-------7-------8-------9-------0-------
TEMPD   2       100.0
TEMP    2       1901    100.0
$
$       Three CBEAM elements
$
$-------2-------3-------4-------5-------6-------7-------8-------9-------0-------
CBEAM   1901    1901    1901    1911    10.0    0.0     0.0
CBEAM   1902    1901    1911    1912    10.0    0.0     0.0
CBEAM   1903    1901    1912    1902    10.0    0.0     0.0
$-------2-------3-------4-------5-------6-------7-------8-------9-------0-------
GRID    1901            0.      10.     0.
grid    1911            5.0     8.66025 0.0
grid    1912            8.66025 5.0     0.0
GRID    1902            10.     0.      0.
$
PBEAM   1901    2       .1      .01     .01     0.0     .02             +
+       0.5     0.0     0.0     0.5     -0.5    0.0     0.0     -0.5    +
+       YESA    1.0
SPC1    1       123456  1901
FORCE   1       1902    0       100.    1.      0.      0.
$
$    One straight CBEAM
CBEAM   11901   1901    11901   11902   0.0     10.     0.0
GRID    11901           0.      0.0     0.
GRID    11902           10.     0.      0.      99
SPC1    1       123456  11901
FORCE   1       11902   0       100.    1.      0.      0.
$-------2-------3-------4-------5-------6-------7-------8-------9-------0-------
$TEMPRB SID     EID     TA      TB      TP1A    TP1B    TP2A    TP2B
$       TCA     TDA     TEA     TFA     TCB     TDB     TEB     TFB
$-------2-------3-------4-------5-------6-------7-------8-------9-------0-------
TEMPRB  2       1901    100.0   100.0                                   +
+       100.    100.    100.    100.    100.    100.    100.    100.    +
+       1902    1903    6901    11901
$-------2-------3-------4-------5-------6-------7-------8-------9-------0-------
$
$       One CBEAM3 element
$
$-------2-------3-------4-------5-------6-------7-------8-------9-------0-------
CBEAM3  2901    2901    2901    2902    2903    10.0    0.0     0.0
GRID    2901            0.      10.     0.
GRID    2902            10.     0.      0.
GRID    2903            7.07107 7.07107 0.
PBEAM3  2901    2       .1      .01     .01     0.0     .02             +
+       0.5     0.0     0.0     0.5     -0.5    0.0     0.0     -0.5 
SPC1    1       123456  2901
FORCE   1       2902    0       100.    1.      0.      0.
$-------2-------3-------4-------5-------6-------7-------8-------9-------0-------
$TEMPB3 SID     EID     TA      TB      TC      TPYA    TPZA    TPYB
$       TPZB    TPYC    TPZC    TCA     TDA     TEA     TFA     TCB
$       TDB     TEB     TFB     TCC     TDC     TEC     TFC
$       List of element IDs
$-------2-------3-------4-------5-------6-------7-------8-------9-------0-------
$ doesn't exist in MSC 2005r2; added in MSC 2005r3?
$TEMPB3  2       2901    100.0   100.0   100.                            +
$+                               100.    100.    100.    100.    100.    +
$+       100.    100.    100.    100.    100.    100.    100.            +
$+       3901    3902    4901    thru    4903    12901 
$
$-------2-------3-------4-------5-------6-------7-------8-------9-------0-------
$
$       Two CBEAM3 elements
$
$-------2-------3-------4-------5-------6-------7-------8-------9-------0-------
CBEAM3  3901    2901    3901    3903    3904    10.0    0.0     0.0
CBEAM3  3902    2901    3903    3902    3905    10.0    0.0     0.0
$
GRID    3901            0.      10.     0.
GRID    3902            10.     0.      0.
GRID    3903            7.07107 7.07107 0.
GRID    3904            3.82683 9.2388
GRID    3905            9.2388  3.82683
SPC1    1       123456  3901
FORCE   1       3902    0       100.    1.      0.      0.
$
$-------2-------3-------4-------5-------6-------7-------8-------9-------0-------
$
$       Three CBEAM3 elements
$
$-------2-------3-------4-------5-------6-------7-------8-------9-------0-------
CBEAM3  4901    2901    4901    4904    4903    10.0    0.0     0.0
CBEAM3  4902    2901    4904    4906    4905    10.0    0.0     0.0
CBEAM3  4903    2901    4906    4902    4907    10.0    0.0     0.0
$
GRID    4901            0.      10.     0.
GRID    4903            2.58819 9.659258 0.0
GRID    4904            5.0     8.660254 0.0
GRID    4905            7.07107 7.07107  0.
GRID    4906            8.660254 5.0     0.
GRID    4907            9.659258 2.58819 0.
GRID    4902            10.     0.      0.
SPC1    1       123456  4901
FORCE   1       4902    0       100.    1.      0.      0.
$
$   One straight CBEAM3
$-------2-------3-------4-------5-------6-------7-------8-------9-------0-------
CBEAM3  12901   2901    12901   12902   12903   0.0     10.0    0.0
GRID    12901           0.      0.0     0.
GRID    12902           10.     0.      0.      99
GRID    12903           5.0     0.0     0.
SPC1    1       123456  12901
FORCE   1       12902   0       100.    1.      0.      0.
$
CORD2R  99              0.0     0.0     0.0     0.0     1.0     0.0     +
+       0.0     0.0     1.0
$
$-------2-------3-------4-------5-------6-------7-------8-------9-------0-------
$
$       One CBEND element
$
$-------2-------3-------4-------5-------6-------7-------8-------9-------0-------
CBEND   6901    6901    6901    6902    10.0    0.0     0.0     3
GRID    6901            0.      10.     0.
GRID    6902            10.     0.      0.
$
PBEND   6901    2       .1      .01     .01     .02     10.0            +
+       0.5     0.0     0.0     0.5     -0.5    0.0     0.0     -0.5    +
+       1.0     1.0
$
SPC1    1       123456  6901
FORCE   1       6902    0       100.    1.      0.      0.
$
MAT1    2       1.0E+7          0.3     .05     .001    0.0     .01     +MAT1-2
+MAT1-2 1000.   2000.   3000.
$
ENDDATA
