NASTRAN PREFOPT=2 $
NASTRAN SYSTEM(20)=0
INIT MASTER(S)
INIT SCRATCH(MEM=0),LOGICAL=(SCRATCH(80000))
ID MSC, BCELL9P0 $ KLK V67 19-DEC-91
TIME 40000
SOL 24
DIAG 8,13,19 $
CEND
TITLE = STATIC ANALYSIS OF A CELLULAR CUBE                     BCELL9P0
SUBTITLE = 9 X 9 X 9 CUBE
ECHO=NOSORT
SET 100 = 10090,10099,10990,10999
DISP = 100
LOAD=100
SPC=10
SUBCASE            1
SUBCASE            2
SUBCASE            3
SUBCASE            4
SUBCASE            5
SUBCASE            6
SUBCASE            7
SUBCASE            8
SUBCASE            9
SUBCASE           10
SUBCASE           11
SUBCASE           12
SUBCASE           13
SUBCASE           14
SUBCASE           15
SUBCASE           16
SUBCASE           17
SUBCASE           18
SUBCASE           19
SUBCASE           20
$ ... 100 like lines cut
BEGIN BULK
EGRID   1               0.      0.      0.
EGRID   2               100.    0.      0.
EGRID   3               100.    100.    0.
EGRID   4               0.      100.    0.
EGRID   5               0.      0.      100.
EGRID   6               100.    0.      100.
EGRID   7               100.    100.    100.
EGRID   8               0.      100.    100.
GRIDG   1                       9       -1      -2      -3              +G1
+G1     9       -4      9       -5      -6      -7      -8
CGEN    QUAD4   110001  2       1       1
CGEN    QUAD4   120001  2       1       2
CGEN    QUAD4   130001  2       1       3
CGEN    HEXA8   1001    1       1
PSHELL  2       1       0.1     1
PSOLID  1       1
MAT1    1       1.+7            .3
SPCG    1       1       123456  0000    0909
SPC1    10      123456  10000   10009   10900   10909
FORCE   100     10999           1.+6    0.      0.      -1.
FORCE   100     10090           1.+6    0.      0.      -1.
FORCE   100     10099           1.+6    0.      0.      -1.
FORCE   100     10990           1.+6    0.      0.      -1.
PARAM,POST,-1
ENDDATA
