$ SYSTEM TESTING ID CC508A
ID NXN, CC508A $
$ID ADAPTIVITY,NX-NASTRAN
TIME 5
SOL 101
CEND
TITLE =  SPHERICAL STRUCTURE ANALYSIS UNDER ITS OWN WEIGHT     CC508A
$  ADAPTIVITY
$
ADAPT= 101
VUGRID(PLOT)=ALL
DATAREC = 301
OUTRCV = 401
$
DISPLACEMENT = ALL
OLOAD = ALL
STRESS = ALL
STRAIN = ALL
$ FORCE = ALL
SPC   = 1
$ SUBCASE = 1
$GPSDCON = ALL
$ELSDCON = ALL
$STRFIELD = ALL
$GPSTRESS = ALL
$SUBCASE 1
LOAD = 1000
$SUBCASE 2
$LOAD = 2000
OUTPUT(POST)
$SETS DEFINITION
$SET 1 = 1,2,3
SET 1 = ALL
SET 2 = 10,11,12
SET 11= 1,10
SET 12= 2,11
SET 13= 3,12
$VOLUME 1 SET 1
BEGIN BULK
$
$  ADAPTIVITY
$
ADAPT,  101,    ,    , 210, 220,230
        errtol=.1,PART=TIP,ELSET=1,TYPE=EBEP
PVAL,   210,    2,      2,      2,    , SET,    1
$PVAL,  210,    2,      2,      2,    , SET,    2
PVAL,   220,    1,      1,      1,    , SET,    1
$PVAL,  220,    1,      1,      1,    , SET,    2
PVAL,   230,    6,      6,      6,    , SET,    1
$PVAL,  230,    6,      6,      6,    , SET,    2
$
OUTPUT, 301
        ELSET=1, STRESS=(PRINT,PLOT), STRAIN=PRINT, DISP=(PRINT,PLOT)
        PVAL=(PRINT,PLOT), BY=1
$23456789022345678903234567890423456789052345678906234567890723456789012
OUTRCV, 401, 1
+       CID=0 , METHOD=EXTRAP
$OUTRCV, 411, 12
$      , CID=0 , METHOD=DIRECT
$OUTRCV, 403, 13
$      , CID= -1, METHOD=EXTRAP
$
PARAM       POST      -2
$PARAM,USETPRT,1
$PARAM,GRDPNT,1
MAT1,   1, 3.000E7, 1.153E7,, 7.76E-4,0.0     ,0.0
PSOLID,   1,   1,   0
CPENTA,   1,   1,   1,  11,  14, 101, 111, 114
$CPENTA,   1,   1,   1,  11,  12, 101, 111, 112
$CPENTA,   2,   1,   1,  12,  13, 101, 112, 113
$CPENTA,   3,   1,   1,  13,  14, 101, 113, 114
CHEXA ,   4,   1,  11,  14,  44,  41, 111, 114,+
+, 144, 141,
$CHEXA ,   4,   1,  11,  12,  22,  21, 111, 112,+
$+, 122, 121,
$CHEXA ,   5,   1,  12,  13,  23,  22, 112, 113,+
$+, 123, 122,
$CHEXA ,   6,   1,  13,  14,  24,  23, 113, 114,+
$+, 124, 123,
$CHEXA ,   7,   1,  21,  22,  32,  31, 121, 122,+
$+, 132, 131,
$CHEXA ,   8,   1,  22,  23,  33,  32, 122, 123,+
$+, 133, 132,
$CHEXA ,   9,   1,  23,  24,  34,  33, 123, 124,+
$+, 134, 133,
$CHEXA ,  10,   1,  31,  32,  42,  41, 131, 132,+
$+, 142, 141,
$CHEXA ,  11,   1,  32,  33,  43,  42, 132, 133,+
$+, 143, 142,
$CHEXA ,  12,   1,  33,  34,  44,  43, 133, 134,+
$+, 144, 143,
$
$   GEOMETRY INNER SURFACE
$
GMCURV, 101, MSCGRP1 , 0, 50
        EQUATION, 0.0, 1.5708, 201, 202, 203, 204, 205,
        206, 207, 208, 209
GMCURV, 102, MSCGRP1 , 0, 50
        EQUATION, 0.0, 1.5708, 211, 212, 213, 214, 215,
        216, 217, 218, 219
GMCURV, 103, MSCGRP1 , 0, 50
        EQUATION, 0.0, 1.5708, 221, 222, 223, 224, 225,
        226, 227, 228, 229
$
$   GEOMETRY OUTER SURFACE
$
GMCURV, 104, MSCGRP1 , 0, 50
        EQUATION, 0.0, 1.5708, 231, 232, 233, 234, 235,
        236, 237, 238, 239
GMCURV, 105, MSCGRP1 , 0, 50
        EQUATION, 0.0, 1.5708, 241, 242, 243, 244, 245,
        246, 247, 248, 249
GMCURV, 106, MSCGRP1 , 0, 50
        EQUATION, 0.0, 1.5708, 251, 252, 253, 254, 255,
        256, 257, 258, 259
$
$   EQUATIONS INNER
$
$234567822345678323456784234567852345678623456787234567882345678
DEQATN   201      X(U)= 11.5*COS(U)
DEQATN   202      Y(U)= 11.5*SIN(U)
DEQATN   203    Z(U)= 0.0
DEQATN   204    DX(U)=-11.5*SIN(U)
DEQATN   205    DY(U)= 11.5*COS(U)
DEQATN   206    DZ(U)= 0.0
DEQATN   207    DDX(U)=-11.5*COS(U)
DEQATN   208    DDY(U)=-11.5*SIN(U)
DEQATN   209    DDZ(U)= 0.0
$
DEQATN   211    X(U)= 0.0
DEQATN   212    Y(U)= 11.5*SIN(U)
DEQATN   213    Z(U)= 11.5*COS(U)
DEQATN   214    DX(U)= 0.0
DEQATN   215    DY(U)= 11.5*COS(U)
DEQATN   216    DZ(U)=-11.5*SIN(U)
DEQATN   217    DDX(U)= 0.0
DEQATN   218    DDY(U)=-11.5*SIN(U)
DEQATN   219    DDZ(U)=-11.5*COS(U)
$
DEQATN   221    X(U)= 11.5*COS(U)
DEQATN   222    Y(U)= 0.0
DEQATN   223    Z(U)= 11.5*SIN(U)
DEQATN   224    DX(U)=-11.5*SIN(U)
DEQATN   225    DY(U)= 0.0
DEQATN   226    DZ(U)= 11.5*COS(U)
DEQATN   227    DDX(U)=-11.5*COS(U)
DEQATN   228    DDY(U)= 0.0
DEQATN   229    DDZ(U)=-11.5*SIN(U)
$
$   EQUATIONS OUTER
$
DEQATN   231    X(U)= 12.5*COS(U)
DEQATN   232    Y(U)= 12.5*SIN(U)
DEQATN   233    Z(U)= 0.0
DEQATN   234    DX(U)=-12.5*SIN(U)
DEQATN   235    DY(U)= 12.5*COS(U)
DEQATN   236    DZ(U)= 0.0
DEQATN   237    DDX(U)=-12.5*COS(U)
DEQATN   238    DDY(U)=-12.5*SIN(U)
DEQATN   239    DDZ(U)= 0.0
$
DEQATN   241    X(U)= 0.0
DEQATN   242    Y(U)= 12.5*SIN(U)
DEQATN   243    Z(U)= 12.5*COS(U)
DEQATN   244    DX(U)= 0.0
DEQATN   245    DY(U)= 12.5*COS(U)
DEQATN   246    DZ(U)=-12.5*SIN(U)
DEQATN   247    DDX(U)= 0.0
DEQATN   248    DDY(U)=-12.5*SIN(U)
DEQATN   249    DDZ(U)=-12.5*COS(U)
$
DEQATN   251    X(U)= 12.5*COS(U)
DEQATN   252    Y(U)= 0.0
DEQATN   253    Z(U)= 12.5*SIN(U)
DEQATN   254    DX(U)=-12.5*SIN(U)
DEQATN   255    DY(U)= 0.0
DEQATN   256    DZ(U)= 12.5*COS(U)
DEQATN   257    DDX(U)=-12.5*COS(U)
DEQATN   258    DDY(U)= 0.0
DEQATN   259    DDZ(U)=-12.5*SIN(U)
$
$  FEEDGE INNER
$
FEEDGE,301,41,44,50,GMCURV,101
FEEDGE,302,44,14,50,GMCURV,102
FEEDGE,303,41,11,50,GMCURV,103
FEEDGE,304,11, 1,50,GMCURV,103
FEEDGE,305, 1,14,50,GMCURV,102
$
$  FEEDGE OUTER
$
FEEDGE,306,141,144,50,GMCURV,104
FEEDGE,307,144,114,50,GMCURV,105
FEEDGE,308,141,111,50,GMCURV,106
FEEDGE,309,111,101,50,GMCURV,106
FEEDGE,310,101,114,50,GMCURV,105
$
$  INNER SURFACE
$
$234567822345678323456784234567852345678623456787234567882345678
DEQATN   401     GX(U,V)= 11.5*SIN(U)*COS(V)
DEQATN   402     GY(U,V)= 11.5*SIN(U)*SIN(V)
DEQATN   403     GZ(U,V)= 11.5*COS(U)
DEQATN   404    DGXU(U,V)= 11.5*COS(U)*COS(V)
DEQATN   405    DGYU(U,V)= 11.5*COS(U)*SIN(V)
DEQATN   406    DGZU(U,V)=-11.5*SIN(U)
DEQATN   407    DGXV(U,V)=-11.5*SIN(U)*SIN(V)
DEQATN   408    DGYV(U,V)= 11.5*SIN(U)*COS(V)
DEQATN   409    DGZV(U,V)= 0.0
DEQATN   410    DDGXU(U,V)=-11.5*SIN(U)*COS(V)
DEQATN   411    DDGYU(U,V)=-11.5*SIN(U)*SIN(V)
DEQATN   412    DDGZU(U,V)=-11.5*COS(U)
DEQATN   413    DDGXV(U,V)=-11.5*SIN(U)*COS(V)
DEQATN   414    DDGYV(U,V)=-11.5*SIN(U)*SIN(V)
DEQATN   415    DDGZV(U,V)= 0.0
DEQATN   416    DGXVV(U,V)=-11.5*COS(U)*SIN(V)
DEQATN   417    DGYUV(U,V)= 11.5*COS(U)*COS(V)
DEQATN   418    DGZUV(U,V)= 0.0
$
$  OUTER SURFACE
$
$234567822345678323456784234567852345678623456787234567882345678
DEQATN   421     GX(U,V)= 12.5*SIN(U)*COS(V)
DEQATN   422     GY(U,V)= 12.5*SIN(U)*SIN(V)
DEQATN   423     GZ(U,V)= 12.5*COS(U)
DEQATN   424    DGXU(U,V)= 12.5*COS(U)*COS(V)
DEQATN   425    DGYU(U,V)= 12.5*COS(U)*SIN(V)
DEQATN   426    DGZU(U,V)=-12.5*SIN(U)
DEQATN   427    DGXV(U,V)=-12.5*SIN(U)*SIN(V)
DEQATN   428    DGYV(U,V)= 12.5*SIN(U)*COS(V)
DEQATN   429    DGZV(U,V)= 0.0
DEQATN   430    DDGXU(U,V)=-12.5*SIN(U)*COS(V)
DEQATN   431    DDGYU(U,V)=-12.5*SIN(U)*SIN(V)
DEQATN   432    DDGZU(U,V)=-12.5*COS(U)
DEQATN   433    DDGXV(U,V)=-12.5*SIN(U)*COS(V)
DEQATN   434    DDGYV(U,V)=-12.5*SIN(U)*SIN(V)
DEQATN   435    DDGZV(U,V)= 0.0
DEQATN   436    DGXVV(U,V)=-12.5*COS(U)*SIN(V)
DEQATN   437    DGYUV(U,V)= 12.5*COS(U)*COS(V)
DEQATN   438    DGZUV(U,V)= 0.0
$
$   GMSURF -INNER
$
GMSURF, 501, MSCGRP1, 0, 50
        EQUATION, 0., 1.5708, 0., 1.5708, 401, 402, 403
        404, 405, 406, 407, 408, 409, 410, 411,
        412 413 414 415 416 417 418 418 418 418
$
$   GMSURF -OUTER
$
GMSURF, 502, MSCGRP1, 0, 50
        EQUATION, 0., 1.5708, 0., 1.5708, 421, 422, 423
        424, 425, 426, 427, 428, 429, 430, 431,
        432 433 434 435 436 437 438
$
$FEFACE FACEID  G1      G2      G3      G4
$
FEFACE  1001    1       11      111     101
FEFACE  1031    1       14      114     101
FEFACE  1201    11      41      141     111
FEFACE  1202    14      44      144     114
FEFACE  1203    41      44      144     141
$
$  FEFACE
$
FEFACE, 551, 1 , 11, 14, , 50 , 501
FEFACE, 552, 11, 14, 44, 41, 50 , 501
FEFACE, 553, 101 , 111, 114, , 50 , 502
FEFACE, 554, 111, 114, 144, 141, 50 , 502
$
SPC,1,   1,  12,0.0
SPC,1, 101,  12,0.0
$
$ GMSPC
$
$
$GMSPC  SID     C       ENTITY  ID
$
$GMSPC   1       3       FEFACE  1011
GMSPC   1       3       FEFACE  1001
GMSPC   1       3       FEFACE  1031
GMSPC   1       3       FEFACE  1201
GMSPC   1       3       FEFACE  1202
GMSPC   1       2       FEFACE  1203
$
GMSPC, 1, 3, GMCURV, 102
$SPC,1,  14,   3,0.0
$SPC,1,  24,   3,0.0
$SPC,1,  34,   3,0.0
$SPC,1,  44,   3,0.0
$
GMSPC, 1, 3, GMCURV, 103
$SPC,1,  11,   3,0.0
$SPC,1,  21,   3,0.0
$SPC,1,  31,   3,0.0
$SPC,1,  41,   3,0.0
$
GMSPC, 1, 2, GMCURV, 101
$SPC,1,  41,   2,0.0
$SPC,1,  42,   2,0.0
$SPC,1,  43,   2,0.0
$SPC,1,  44,   2,0.0
$
GMSPC, 1, 3, GMCURV, 105
$SPC,1, 114,   3,0.0
$SPC,1, 124,   3,0.0
$SPC,1, 134,   3,0.0
$SPC,1, 144,   3,0.0
GMSPC, 1, 3, GMCURV, 106
$SPC,1, 111,   3,0.0
$SPC,1, 121,   3,0.0
$SPC,1, 131,   3,0.0
$SPC,1, 141,   3,0.0
GMSPC, 1, 2, GMCURV, 104
$SPC,1, 141,   2,0.0
$SPC,1, 142,   2,0.0
$SPC,1, 143,   2,0.0
$SPC,1, 144,   2,0.0
$
GRAV,100,,1.0,0.0     ,0.0     ,386.4
LOAD,1000,1.0,1.0,100
$
LOAD,2000,1.0,1.0,200
FORCE,200,1, 0, 1000.0, 0.0, 0.0, 1.0
FORCE,200,101, 0, 1000.0, 0.0, 0.0, 1.0
$
CORD2S, 50, 0, 0.0, 0.0, 0.0, 0.0, 0.0, 1.0
 , 1.0, 0.0, 0.0
$
GRID,   1, 0, 0.0  ,0.0     ,11.5    ,  0,   456
GRID,  11,50, 11.5 ,12.0    ,0.0     , 50,   456
GRID,  12,50, 11.5 ,12.0    ,30.0    , 50,   456
GRID,  13,50, 11.5 ,12.0    ,60.0    , 50,   456
GRID,  14,50, 11.5 ,12.0    ,90.0    , 50,   456
GRID,  21,50, 11.5 ,38.0    ,0.0     , 50,   456
GRID,  22,50, 11.5 ,38.0    ,30.0    , 50,   456
GRID,  23,50, 11.5 ,38.0    ,60.0    , 50,   456
GRID,  24,50, 11.5 ,38.0    ,90.0    , 50,   456
GRID,  31,50, 11.5 ,64.0    ,0.0     , 50,   456
GRID,  32,50, 11.5 ,64.0    ,30.0    , 50,   456
GRID,  33,50, 11.5 ,64.0    ,60.0    , 50,   456
GRID,  34,50, 11.5 ,64.0    ,90.0    , 50,   456
GRID,  41,50, 11.5 ,90.0    ,0.0     , 50,   456
GRID,  42,50, 11.5 ,90.0    ,30.0    , 50,   456
GRID,  43,50, 11.5 ,90.0    ,60.0    , 50,   456
GRID,  44,50, 11.5 ,90.0    ,90.0    , 50,   456
$
GRID, 101, 0,  0.0 ,0.0     ,12.5    ,  0,   456
GRID, 111,50, 12.5 ,12.0    ,0.0     , 50,   456
GRID, 112,50, 12.5 ,12.0    ,30.0    , 50,   456
GRID, 113,50, 12.5 ,12.0    ,60.0    , 50,   456
GRID, 114,50, 12.5 ,12.0    ,90.0    , 50,   456
GRID, 121,50, 12.5 ,38.0    ,0.0     , 50,   456
GRID, 122,50, 12.5 ,38.0    ,30.0    , 50,   456
GRID, 123,50, 12.5 ,38.0    ,60.0    , 50,   456
GRID, 124,50, 12.5 ,38.0    ,90.0    , 50,   456
GRID, 131,50, 12.5 ,64.0    ,0.0     , 50,   456
GRID, 132,50, 12.5 ,64.0    ,30.0    , 50,   456
GRID, 133,50, 12.5 ,64.0    ,60.0    , 50,   456
GRID, 134,50, 12.5 ,64.0    ,90.0    , 50,   456
GRID, 141,50, 12.5 ,90.0    ,0.0     , 50,   456
GRID, 142,50, 12.5 ,90.0    ,30.0    , 50,   456
GRID, 143,50, 12.5 ,90.0    ,60.0    , 50,   456
GRID, 144,50, 12.5 ,90.0    ,90.0    , 50,   456
$
PARAM,AUTOSPC,YES
$ DELETE THE FOLLOWING CARD FOR LUMPED MASS OPTION
$PARAM,COUPMASS,1
$PARAM,GPDT,GPDT
$PARAM,BGPDT,BGPDT
$PARAM,NEWSEQ,-1
ENDDATA
