$*$$$$$$$$$$$$$$$$$$$$$$$$$$$$$$$$$$$$$$$$$$$$$$$$$$$$$$$$$$$$$$$$$$$$$$$$$$$$$$$$$$$$$$$$$$$
$
$ DESCRIPTION - Test for Edge - Edge Contact with Plane Strain elements
$               The model has linear and quadratic (Quad & Tria) elements
$               Nodal Disp Cord System
$
$ SOLUTION    - 101
$
$$$$$$$$$$$$$$$$$$$$$$$$$$$$$$$$$$$$$$$$$$$$$$$$$$$$$$$$$$$$$$$$$$$$$$$$$$$$$$$$$$$$$$$$$$$$$$
$
$*
$*$$$$$$$$$$$$$$$$$$$$$$$$$$$$$$$$$$$
$*
$* FILE MANAGEMENT
$*
$*$$$$$$$$$$$$$$$$$$$$$$$$$$$$$$$$$$$
$*
$*
$*$$$$$$$$$$$$$$$$$$$$$$$$$$$$$$$$$$$
$*
$* EXECUTIVE CONTROL
$*
$*$$$$$$$$$$$$$$$$$$$$$$$$$$$$$$$$$$$
$*
SOL 101
CEND
$*
$*$$$$$$$$$$$$$$$$$$$$$$$$$$$$$$$$$$$
$*
$* CASE CONTROL
$*
$*$$$$$$$$$$$$$$$$$$$$$$$$$$$$$$$$$$$
$*
ECHO = NONE
SPC = 1
OUTPUT
DISPLACEMENT(PRINT,PLOT,REAL) = ALL
SPCFORCES(PLOT,REAL) = ALL
$
SET 6 = 14, 36, 41, 72
STRESS(PRINT,PLOT,REAL,VONMISES,CENTER) = 6
STRAIN(PRINT,PLOT,REAL,VONMISES,CENTER) = 6
$
BCSET = 1
BCRESULTS(TRACTION,FORCE,PRINT,PLOT) = ALL
$
$
$*  NX Step: Subcase - Static Loads 1
$
SUBCASE 1
LOAD = 11
$
SUBCASE 2
LOAD = 12
$
SUBCASE 3
LOAD = 13
$
$*
$*$$$$$$$$$$$$$$$$$$$$$$$$$$$$$$$$$$$
$*
$* BULK DATA
$*
$*$$$$$$$$$$$$$$$$$$$$$$$$$$$$$$$$$$$
$*
BEGIN BULK
$*
$* PARAM CARDS
$*
PARAM      K6ROT   100.0
PARAM    OMACHPR     YES
PARAM       POST      -1
PARAM    POSTEXT     YES
PARAM    UNITSYS   MN-MM
PARAM     PRGPST      NO
$*
$234567812345678123456781234567812345678123456781234567812345678123456781234567812345678
BLSEG          1      35      29      30      31      32      36
BLSEG          2     130     100      94     102      95     101      96+
+             99      97      98     131
$
BCTSET         1       1       2      .1             .60
$
CORD2R, 5, , 0.0, 0.0, 0.0, 0.0, 0.0, 1.0, +C1,
+C1, 0.0, 1.0, 1.0
$
$* GRID CARDS
$*
GRID           1       0    40.0     0.0    20.0       0
GRID           2       0    40.0     0.0    40.0       0
GRID           3       0    40.0     0.0    60.0       5
GRID           4       0    40.0     0.0    80.0       0
GRID           5       0    20.0     0.0    60.0       0
GRID           6       0    20.0     0.0    80.0       0
GRID           7       0    20.0     0.0    20.0       5
GRID           8       0    20.0     0.0    40.0       0
GRID           9       0    60.0     0.0    60.0       5
GRID          10       0    80.0     0.0    60.0       0
GRID          11       0    80.0     0.0    80.0       0
GRID          12       0    60.0     0.0    80.0       0
GRID          13       0    80.0     0.0    40.0       5
GRID          14       0    80.0     0.0    20.0       0
GRID          15       0    60.0     0.0    20.0       0
GRID          16       0    60.0     0.0    40.0       0
GRID          17       0     0.0     0.0    20.0       0
GRID          18       0     0.0     0.0    40.0       0
GRID          19       0     0.0     0.0    60.0       0
GRID          20       0     0.0     0.0    80.0       0
$ ... 119 like lines cut
$*
$* ELEMENT CARDS
$*
$*  NX mesh: 2d_mesh(1)
CPLSTN4        1       3       6       4      27      28
CPLSTN4        2       3       6      28      34      20
CPLSTN4        3       3       5       3       4       6
CPLSTN4        4       3       5       6      20      19
CPLSTN4        5       3       7      17      33      21
CPLSTN4        6       3       7      21      22       1
CPLSTN4        8       3       8      18      17       7
CPLSTN4        9       3       2       3       5       8
CPLSTN4       10       3       2       8       7       1
CPLSTN4       12       3      11      32      36      25
CPLSTN4       13       3      12       4       3       9
CPLSTN4       14       3      12       9      10      11
CPLSTN4       16       3      26      12      11      25
CPLSTN4       17       3      14      24      35      29
CPLSTN4       18       3      30      31      10      13
CPLSTN4       21       3      15      23      24      14
CPLSTN4       23       3      16       2       1      15
CPLSTN4       24       3      13      10       9      16
CPLSTN4       25       3      13      16      15      14
CPLSTN3       26       3      30      13      14
$ ... 11 like lines cut
$*  NX mesh: cn_mesh(1)
$*  NX mesh: 2d_mesh(2)
CPLSTN8       39       4      43      41     114     115      54      55+
+            116      56
CPLSTN8       41       4      42      40      41      43      58      59+
+             54      60
CPLSTN8       42       4      42      43      97      96      60      57+
+             99      61
CPLSTN8       44       4      44     103     104      38      63     108+
+             64      65
CPLSTN8       46       4      45      95      94      44      67     102+
+             62      68
CPLSTN8       47       4      39      40      42      45      69      58+
+             66      70
CPLSTN8       48       4      39      45      44      38      70      68+
+             65      71
CPLSTN8       49       4      48      47     123     124      72      73+
+            125      74
CPLSTN8       50       4      48     124     133     112      74     126+
+            118      75
CPLSTN8       52       4      49      46      47      48      78      79+
+             72      80
CPLSTN8       53       4     113     114      41      49     119      55+
+             76      81
CPLSTN8       54       4     113      49      48     112      81      80+
+             75     120
CPLSTN8       57       4     122      50      51     121      85      86+
+             83     129
CPLSTN8       58       4      52      38     104     105      87      64+
+            110      88
CPLSTN8       59       4      52     105     106      51      88     111+
+             82      89
CPLSTN8       60       4      53      46      40      39      90      77+
+             69      91
CPLSTN8       62       4      50      47      46      53      84      79+
+             90      93
CPLSTN8       63       4      50      53      52      51      93      92+
+             89      86
CPLSTN6       64       4      44      94     130      62     100     134
CPLSTN6       65       4      44     130     103     134     107      63
CPLSTN6       66       4      45      42      95      66     135      67
CPLSTN6       67       4      42      96      95      61     101     135
CPLSTN6       68       4      43     115      97      56     136      57
CPLSTN6       69       4     115     131      97     117      98     136
CPLSTN6       70       4      49      41      40      76      59     137
CPLSTN6       71       4      49      40      46     137      77      78
CPLSTN6       72       4      53      39      38      91      71     138
CPLSTN6       73       4      53      38      52     138      87      92
CPLSTN6       74       4      51     106     121      82     139      83
CPLSTN6       75       4     106     132     121     109     127     139
CPLSTN6       76       4     122     123      50     128     140      85
CPLSTN6       77       4     123      47      50      73      84     140
$*  NX mesh: cn_mesh(2)
$*
$* PROPERTY CARDS
$*
$*  NX Property: PSHELL3
PPLANE         3       1      1.
$*  NX Property: PSHELL4
PPLANE         4       1      1.
$*
$* MATERIAL CARDS
$*
$*  NX Material: AISI_Steel_1005
MAT1           1   2.0+8             .25 7.872-6  1.26-5
$*
$* LOAD AND CONSTRAINT CARDS
$*
$*  NX Load and Constraint: Fixed(1)
SPC            1      17  123456     0.0
SPC            1      18  123456     0.0
SPC            1      19  123456     0.0
SPC            1      20  123456     0.0
SPC            1      33  123456     0.0
SPC            1      34  123456     0.0
$*  NX Load and Constraint: Force(1)
SPC            1     132  123456     0.0
SPC            1     133  123456     0.0
$*  NX Load and Constraint: Force(1)
$
FORCE          1     121       0   200.0     1.0     0.0     0.0
FORCE          1     122       0   200.0     1.0     0.0     0.0
FORCE          1     123       0   200.0     1.0     0.0     0.0
FORCE          1     124       0   200.0     1.0     0.0     0.0
FORCE          1     125       0   400.0     1.0     0.0     0.0
FORCE          1     126       0   400.0     1.0     0.0     0.0
FORCE          1     127       0   400.0     1.0     0.0     0.0
FORCE          1     128       0   400.0     1.0     0.0     0.0
FORCE          1     129       0   400.0     1.0     0.0     0.0
$FORCE          1     132       0   100.0     1.0     0.0     0.0
$FORCE          1     133       0   100.0     1.0     0.0     0.0
$23456781234567812345678123456781234567812345678123456781234567812345678
$
LOAD          11     1.0  -1.0E5       1
LOAD          12     1.0  -2.0E5       1
LOAD          13     1.0  -3.0E5       1
$
$
$23456781234567812345678123456781234567812345678123456781234567812345678
$
ENDDATA
