NASTRAN SYSTEM(700)=1
$***********************************************************************
$ Version:     2001
$ Purpose:     Test minor enhancements [A00366, A00367 (ELESUM)] to
$              check revised output format and content produced by the
$              new ELESUM Case Control Command.
$ Description: Baseline test deck incorporates all of the element
$              types that are affected by the enhancement.
$
$***********************************************************************
$
NASTRAN RSEQCONT=0
TIME  30
SOL 101
CEND
set 44 = 3401, 3403, 3410
elsum = all
TITLE=  ELEMENT OMNIBUS CODE CHECK PROBLEM                     eli71
SUBTITLE = MSC/68 VERSION
ECHO = BOTH
SPC = 12
TEMP(MATE) = 1
 SET 10002= 1 THRU 13999, 14399 THRU 16900
   DISP=ALL
   ELFORCE=ALL
   OLOAD = ALL
   STRESS(corner) =ALL
   ESE=10002
   SEFINAL=1
   GPFO=10002
   STRFIELD=ALL
   GPSTRESS=ALL
 ADAPT   = 150
 DATAREC = 301
 OUTRCV  = 401
SUBCASE 1
LABEL = STATIC LOAD
 LOAD = 1
 P2G=MATLOAD
 K2GG=MATK
SUBCASE 3
LABEL = TURN ON TEMP LOADS
 TEMP(LOAD) = 2
SUBCASE 4
LABEL = TURN ON DEFORM LOADS FOR 1-D ELEMENTS
 SET 10000 = 1 THRU 399,1000 THRU 1099,3401 THRU 3499
 SET 10001 = 101, 107, 200,301, 307, 1001, 1007, 3401, 3403, 3410
   DISP=10000
   ELFORCE=10001
   OLOAD = 10000
   STRESS =10001
   ESE=10001
   GPFO=10000
   DEFORM =4
OUTPUT (POST)
 SET 101 = 14101,14201,14301,17200,17301,17313,17321,17460,17451,
           17601,17602,17701,17702  $ P-ELEMENTS
 SET 1 = ALL EXCEPT 6413,3321
 SET 2 = 6413 $,9913 $ QUAD8,QUADR DOUBLY CURVED
 SURFACE 1 SET 1 NORMAL Z geometric
 SURFACE 2 SET 2 NORMAL Y geometric
BEGIN BULK
DEFORM,4,101,.05 $ 1-D ELEMENTS
=,=,107,= $
=,=,301,= $
=,=,307,= $
=,=,1001,= $
=,=,1007,= $
=,=,3401,= $
=,=,3403,= $
=,=,3410,= $
=,=,200,= $
$
$               C O M M O N   D A T A   T O   A L L   P R O B L E M S
PARAM,  XFLAG, 0
PARAM,  SNORM, 0.
PARAM,  USETPRT, 2 $ PRINT USET TABLE AFTER AUTOSPC, TWO WAYS
PARAM,  BAILOUT, -1 $ CONTINUE IF BADLY CONDITIONED
PARAM,  NEWSEQ,-1
PARAM,  MPCX, 0
PARAM,  SUPER, 0
param,dbcconv,xl
PARAM       POST      -1
PARAM,  PROUT, 1
PARAM,  LSTRN,  1
$
CORD2C  1       0       3.0     -1.0    0.0     9.0     -1.0    0.0     +CORD2C
+CORD2C 9.0     0.0     -1.0
$
CORD2R  2       0       0.0     -2.0    0.0     1.011234-2.0    0.0     +CORD2R
+CORD2R 0.0     0.0     0.0
$
CORD2S  3       1       3.0     225.0   0.0     3.0     225.0   1.234567+CORD2S
+CORD2S 3.0     -45.0   3.0
$
GRAV    3               1.0     1.0     1.0     1.0
TEMPD   1       100.0
TEMPD   2       200.0
$
MAT1    1       1.      .8      .1      .05     .001    100.    .01     +MAT11
+MAT11  2.0     3.0     4.0
MATT1   1       2                               3                       +MATT1
+MATT1  4       5       6
MAT1    2       1.0E+7          0.3     .05     .001    100.0   .01     +MAT1-2
+MAT1-2 1000.   2000.   3000.
MATT1   2                                       3                       +MATT1-2
+MATT1-2 2      2
MAT4    1       1.23    4.56
MAT4    2       3.45    6.78
MATT4   1       3
MATT4   2       5
MAT8    3       1.E+7   1.E+7   .25     4.E+6   4.E+6   4.E+6   1.0     +MAT81
+MAT81  1.-6    2.-6            1.E-4           1.E-3           1.E-4   +MAT82
+MAT82                  1.0
$
TABLEM1 2                                                               +TABLE-2
+TABLE-2 0.0    1.0     150.0   1.0     150.    0.5     300.    0.5     +TABL-2
+TABL-2 ENDT    ENDT
TABLEM2 3       100.0                                                   +TABLE-3
+TABLE-3 0.0    0.1     50.0    0.1     50.0    0.5     150.0   0.5     +TABL-3
+TABL-3 200.0   10.0            ENDT
TABLEM3 4       100.0   2.0                                             +TABLE-4
+TABLE-4 0.0    0.1     25.0    .1      25.0    2.0     75.0    2.0     +TABL-4
+TABL-4 300.0   .00001  ENDT
TABLEM4 5       100.0   100.    2.0     10.00                           +TABLE-5
+TABLE-5                                2.0     ENDT
TABLEM4 6       0.0     100.    0.0     100.00                          +TABLE-6
+TABLE-6 1.0            .25     ENDT
$
PARAM   GRDPNT  0
PARAM   NT      1
PARAM   TINY    0.
PARAM   IRES    1
PARAM   COUPMASS1
PARAM,  AUTOSPC,YES
PARAM,  COMPARE,1 $ PROCESS SELECTED S.E., THEN ENTIRE MODEL, DMAP0
PARAM,  PNCHDB, 1 $ PUNCH FROM DATA BASE, DMAP0
PARAM,  GPECT,  1 $ GRID-ELEMENT CONNECTIVITY.  MG 21 OCT 80
PARAM,  NOELOP, 1 $ SUM OF FORCES.  MG 21 OCT 1980
$PARAM,  NOGPF,  -1 $ SUPPRESS GPFO OUTPUT.  LOOK AT ELOP INSTEAD.  MG
$
$ SPCS TO BE SELECTED FOR RF 1 THRU 12
SPCADD  12      1       2
$ SPCS TO BE SELECTED FOR RF 51,53 AND 59
SPCADD  13      1       3
$
FREQ1   10      0.0     1.0     1
RLOAD2  11      12                      14
TABLED1 14                                                              +TABD4.1
+TABD4.1-1.0    1.0001  2.0     1.0001  ENDT
$
$ P-ELEMENTS
ADAPT   150                     120     120     120
        PART=PELEM,ELSET=101
$PVAL    120     2       2       2               SET     101
PVAL    120     1       1       1               SET     101
OUTPUT  301
        ELSET=101, DISP=(PRINT,PLOT), STRESS=(PRINT,PLOT)
        STRAIN=PRINT, PVAL=PRINT, ERROR=PRINT, BY=1
OUTRCV  401     101
        VIEW=1*1*1
$
$ ++++++++++++++++++++++++++++++++++++++++++++++++++++++++++++++++++++++++++++++
$
$               ROD                         ELEMENT NO.  1
$
CROD    101     101     101     102
GRID    101     0       0.0     0.0     0.0
GRID    102     0       1.0     0.0     0.0
SPC1    1       123456  101
SPC1    1       2356    102
FORCE1  1       102     1.0     101     102
MOMENT1   1     102     1.0     101     102
DAREA   12      102     1       1.0     102     4       1.0
$
CROD    107     101     107     108
GRID    107     3       2.23606863.4349545.0    3       123456
GRID    108     3       2.0     90.0    45.0    3       1346
FORCE1  1       108     1.0     107     108
MOMENT1 1       108     1.0     107     108
DAREA   12      108     3       1.0     108     6       1.0
PROD    101     1       1.0     2.0     0.1     0.5
$
$+++++++++++++++++++++++++++++++++++++++++++++++++++++++++++++++++++++++++++++++
$
$               BEAM                        ELEMENT NO.  2
$
CBEAM   200     200     201     202     0.      0.      1.
GRID    201     0       0.0     0.0     0.0
GRID    202     0       1.0     0.0     0.0
SPC1    1       23456   202
SPC1    1       123456  201
FORCE   1       202     0       1.0     1.0     0.0     0.0
PBEAM   200     1       100.    1.+4    1.+4                            +PBEAM1
+PBEAM1 2.0     1.0                                                     +PBEAM2
+PBEAM2 YESA    1.0
DAREA   12      202     1       1.0
$
$+++++++++++++++++++++++++++++++++++++++++++++++++++++++++++++++++++++++++++++++
$
$               TUBE                        ELEMENT NO.  3
$
CTUBE   301     301     301     302
GRID    301     0       0.0     0.0     0.0
GRID    302     0       1.0     0.0     0.0
SPC1    1       123456  301
SPC1    1       2356    302
FORCE1  1       302     .282265 301     302
MOMENT1 1       302     .282265 301     302
DAREA   12      302     1       1.0     302     4       1.0
$
CTUBE   307     301     307     308
GRID    307     3       2.23606863.4349545.0    3       123456
GRID    308     3       2.0     90.0    45.0    3       1346
FORCE1  1       308     .282265 307     308
MOMENT1 1       308     .282265 307     308
DAREA   12      308     2       -1.0    308     5       -1.0
PTUBE   301     1       1.0     0.1     2.0
$
$+++++++++++++++++++++++++++++++++++++++++++++++++++++++++++++++++++++++++++++++
$
$               SHEAR                       ELEMENT NO.  4
$
CSHEAR  401     401     401     402     403     404
GRID    401     0       0.0     0.0     0.0
GRID    402     0       1.0     0.0     0.0
GRID    403     0       1.0     1.0     0.0
GRID    404     0       0.0     1.0     0.0
$ ELEMENT STABILIZED WITH SPCS RATHER THAN CELAS ELS. MSC/61 MG 27OCT80
$CELAS2  402     1.0-5   402     2       0       0
$CELAS2  403     1.0-5   403     2       0       0
SPC1    1       123456  401     404
SPC1    1       13456   402     403
FORCE   1       402     0       1.0     0.0     1.0     0.0
FORCE   1       403     0       1.0     0.0     1.0     0.0
DAREA   12      402     2       1.0     403     2       1.0
$
CSHEAR  413     401     413     414     415     416
GRID    413     3       1.00     90.0   45.0    3       23456
GRID    414     3       1.414214 45.0   45.0    3       123456
GRID    415     3       2.23606863.4349545.0    3       654321
GRID    416     3       2.00     90.0   45.0    3       65432
$CELAS2  414     1.0-4   413     1       416     1
FORCE1  1       413     1.0     413     416
FORCE1  1       416     1.0     413     416
DAREA   12      413     1       1.0     416     4       1.0
PSHEAR, 401     1       1.0     0.5, 1.,30.$ F1,F2 ADDED MSC/61 MG JUL80
$
$$
$$++++++++++++++++++++++++++++++++++++++++++++++++++++++++++++++++++++++++++++++
$$               TRBSC                       ELEMENT NO.  7
$$
GRID    701     0       0.0     0.0     0.0
GRID    702     0       1.0     0.0     0.0
GRID    703     0       0.5     1.0     0.0
SPC1    1       1256    703
SPC1    1       123456  701     702
FORCE2  1       703     1.0     701     702     702     703
DAREA   12      703     3       1.0
$
GRID    710     3       1.0      90.0   45.0    3       126543
GRID    711     3       1.414214 45.0   45.0    3       163425
GRID    712     3       2.06155375.96379 45.0   3       126
FORCE2  1       712     1.0     711     710     712     711
DAREA   12      712     3       1.0
$
$+++++++++++++++++++++++++++++++++++++++++++++++++++++++++++++++++++++++++++++++
$
$               CONROD                      ELEMENT NO. 10
$
CONROD  1001    1001    1002    1       1.0     1.0     1.0     0.5
GRID    1001    0       0.0     0.0     0.0
GRID    1002    0       1.0     0.0     0.0
SPC1    1       123456  1001
SPC1    1       2356    1002
FORCE1  1       1002    1.0     1001    1002
MOMENT1 1       1002    1.0     1001    1002
DAREA   12      1002    1       1.0     1002    4       1.0
$
CONROD  1007    1007    1008    1       1.0     1.0     1.0     0.5
GRID    1007    3       2.23636863.4349545.0    3       123456
GRID    1008    3       2.0     90.0    45.0    3       1346
FORCE1  1       1008     1.0    1007    1008
MOMENT1 1       1008     1.0    1007    1008
DAREA   12      1008    2        1.0    1008    5        1.0
$
$+++++++++++++++++++++++++++++++++++++++++++++++++++++++++++++++++++++++++++++++
$
$               ELAS1                       ELEMENT NO. 11
$
CELAS1  1101    1101    1101    0       1102    0
SPOINT  1101    1102
SPC1    1       0       1101
SLOAD   1       1102    1.0
DAREA   12      1102    0       1.0
PELAS   1101    1.0     0.5     0.1
$
$+++++++++++++++++++++++++++++++++++++++++++++++++++++++++++++++++++++++++++++++
$
$               ELAS1                       ELEMENT NO. 11
$
$ TEST NEW SPOINT 7 DIGID LIMIT IN V70.6
$
CELAS1  1102    1101    1100001 0       1100002 0
SPOINT  1100001 1100002
SPC1    1       0       1100001
SLOAD   1       1100002 1.0
DAREA   12      1100002 0       1.0
$
$+++++++++++++++++++++++++++++++++++++++++++++++++++++++++++++++++++++++++++++++
$
$               ELAS2                       ELEMENT NO. 12
$
CELAS2  1201    1.0     1201    0       1202    0       0.5     1.0
SPOINT  1201    1202
SPC1    1       0       1201
SLOAD   1       1202    1.0
DAREA   12      1202    0       1.0
$
$+++++++++++++++++++++++++++++++++++++++++++++++++++++++++++++++++++++++++++++++
$
$               ELAS3                       ELEMENT NO. 13
$
CELAS3  1301    1301    0       1302
SLOAD   1       1302    1.0
DAREA   12      1302    0       1.0
PELAS   1301    1.0     0.5     0.1
$
$+++++++++++++++++++++++++++++++++++++++++++++++++++++++++++++++++++++++++++++++
$
$               ELAS4                       ELEMENT NO. 14
$
CELAS4  1401    1.0     0       1402
SLOAD   1       1402    1.0
DAREA   12      1402    0       1.0
$
$+++++++++++++++++++++++++++++++++++++++++++++++++++++++++++++++++++++++++++++++
$
$               DAMP1                       ELEMENT NO. 20
$
CDAMP1  2001    2001    2001    0       2002    0
SPOINT  2001    2002
SPC     1       2002    0       0.0
SPC1    1       0       2001
SLOAD   1       2002    1.0
DAREA   12      2002    0       1.0
PDAMP   2001    1.0
$
$+++++++++++++++++++++++++++++++++++++++++++++++++++++++++++++++++++++++++++++++
$
$               DAMP2                       ELEMENT NO. 21
$
CDAMP2  2101    1.0     2101    0       2102    0
SPOINT  2101    2102
SPC     1       2102    0       0.0
SPC1    1       0       2101
SLOAD   1       2102    1.0
DAREA   12      2102    0       1.0
$
$+++++++++++++++++++++++++++++++++++++++++++++++++++++++++++++++++++++++++++++++
$
$               DAMP3                       ELEMENT NO. 22
$
CDAMP3  2201    2201    0       2202
SPC     1       2202    0       0.0
SLOAD   1       2202    1.0
DAREA   12      2202    0       1.0
PDAMP   2201    1.0
$
$+++++++++++++++++++++++++++++++++++++++++++++++++++++++++++++++++++++++++++++++
$
$               DAMP4                       ELEMENT NO. 23
$
CDAMP4  2301    1.0     0       2302
SPC     1       2302    0       0.0
SLOAD   1       2302    1.0
DAREA   12      2302    0       1.0
$
$+++++++++++++++++++++++++++++++++++++++++++++++++++++++++++++++++++++++++++++++
$
$               VISC                        ELEMENT NO. 24
$
CVISC   2401    2401    2401    2402
GRID    2401    0       0.0     0.0     0.0
GRID    2402    0       1.0     0.0     0.0
SPC     1       2402    123456  0.0
SPC1    1       123456  2401
FORCE1  1       2402    1.0     2401    2402
DAREA   12      2402    1       1.0
$
CVISC   2407    2401    2407    2408
GRID    2407    3       2.0     90.0    45.0    3       123456
GRID    2408    3       2.23606863.43495 45.0   3       123456
FORCE   1       2408    2       1.0     0.0     0.0     1.0
DAREA   12      2407    2       -1.0
PVISC   2401    1.0     2.0
$
$+++++++++++++++++++++++++++++++++++++++++++++++++++++++++++++++++++++++++++++++
$
$               MASS1                       ELEMENT NO. 25
$
CMASS1  2501    2501    2501    0       2502    0
SPOINT  2501    2502
SPC     1       2502    0       0.0
SPC1    1       0       2501
SLOAD   1       2502    1.0
DAREA   12      2502    0       1.0
$
CMASS1  2507    2501    2507    1       2508    1
GRID    2507    3       1.0     90.0    45.0    3       123456
GRID    2508    3       2.0     90.0    45.0    3       123456
PMASS   2501    1.0
$
$+++++++++++++++++++++++++++++++++++++++++++++++++++++++++++++++++++++++++++++++
$
$               MASS2                       ELEMENT NO. 26
$
CMASS2  2601    1.0     2601    0       2602    0
SPOINT  2601    2602
SPC     1       2602    0       0.0
SPC1    1       0       2601
SLOAD   1       2602    1.0
DAREA   12      2602    0       1.0
$
CMASS2  2607    1.0     2607    1       2608    1
GRID    2607    3       1.0     90.0    45.0    3       123456
GRID    2608    3       2.0     90.0    45.0    3       123456
$
$+++++++++++++++++++++++++++++++++++++++++++++++++++++++++++++++++++++++++++++++
$
$               MASS3                       ELEMENT NO. 27
$
CMASS3  2701    2701    0       2702
SPC     1       2702    0       0.0
SLOAD   1       2702    1.0
DAREA   12      2702    0       1.0
PMASS   2701    1.0
$
$+++++++++++++++++++++++++++++++++++++++++++++++++++++++++++++++++++++++++++++++
$
$               MASS4                       ELEMENT NO. 28
$
CMASS4  2801    1.0     0       2802
SPC     1       2802    0       0.0
SLOAD   1       2802    1.0
DAREA   12      2802    0       1.0
$
$+++++++++++++++++++++++++++++++++++++++++++++++++++++++++++++++++++++++++++++++
$
$               CONM1                       ELEMENT NO. 29
$
CONM1   2901    2901    0       1.0     1.0     1.0     1.0     1.0     +CONM11
+CONM11 1.0     1.0     1.0     1.0     1.0     1.0     1.0     1.0     +CONM12
+CONM12 1.0     1.0     1.0     1.0     1.0     1.0     1.0     1.0
GRID    2901    0       0.0     0.0     0.0
SPC     1       2901    123456  0.0
$
CONM1   2904    2904    3       1.1     2.1     2.2     3.1     3.2     +CONM1+1
+CONM1+13.3     4.1     4.2     4.3     4.4     5.1     5.2     5.3     +CONM1+2
+CONM1+25.4     5.5     6.1     6.2     6.3     6.4     6.5     6.6
GRID    2904    3       1.0     90.0    45.0    3       123456
$
$+++++++++++++++++++++++++++++++++++++++++++++++++++++++++++++++++++++++++++++++
$
$               CONM2                       ELEMENT NO. 30
$
CONM2   3001    3001    0       1.0     1.0     1.0     1.0             +CONM21
+CONM21 1.0     1.0     1.0     1.0     1.0     1.0
GRID    3001    0       0.0     0.0     0.0
SPC     1       3001    123456  0.0
$
CONM2   3004    3004    3       1.0     1.0     1.1     1.2             +CONM2+1
+CONM2+11.0     1.0     1.0     1.0     1.0     1.0
GRID    3004    3       1.0     90.0    45.0    3       123456
$
$+++++++++++++++++++++++++++++++++++++++++++++++++++++++++++++++++++++++++++++++
$
$               PLOTEL                      ELEMENT NO. 31
$
GRID    3101    0       0.0     5.0                     123456
GRID    3102            0.0     8.0                     123456
GRID    3103            2.0     5.0                     123456
PLOTEL  3101    3101    3102            3102    3102    3103
$
$+++++++++++++++++++++++++++++++++++++++++++++++++++++++++++++++++++++++++++++++
$
$               REACT                       ELEMENT NO. 32
$
$       THIS ELEMENT NO LONGER EXISTS IN THE NASTRAN SYSTEM.
$
$+++++++++++++++++++++++++++++++++++++++++++++++++++++++++++++++++++++++++++++++
$
$               QUAD4                   ELEMENT NO. 33
$
CQUAD4  3301    3301    3301    3302    3303    3304    0.
GRID    3301    0       0.0     0.0     0.0
GRID    3302    0       1.0     0.0     0.0
GRID    3303    0       1.0     1.0     0.0
GRID    3304    0       0.0     1.0     0.0
SPC1    1       1256    3302    3303
SPC1    1       123456  3301    3304
FORCE   1       3302    0       1.0     0.0     0.0     1.0
FORCE   1       3303    0       1.0     0.0     0.0     1.0
DAREA   12      3302    3       1.0     3303    3       1.0
PSHELL  3301    1       1.0     1       120.0   1       1.0     0.5     +QUAD41
+QUAD41 0.2     -0.3
$
CQUAD4  3313    3313    3313    3314    3315    3316    382.5           +QUAD42
+QUAD42                 .63     .67             .53
GRID    3313    3       3.0     90.     0.      3       123456
GRID    3314    3       3.0     90.     60.     2       123456
GRID    3315    3       3.0     40.     60.     1       4
GRID    3316    3       3.0     30.     0.      0       5
FORCE   1       3315    2       3.14159 0.      2.71828 0.
DAREA   12      3315    3       1.73205
PSHELL  3313    1       .618034 2               1               .30103  +QUAD43
+QUAD43 0.
$
$ COMPOSITE TESTING , WITH STRAIN THEORY, ADDED 17JUN87, LNA
CQUAD4  3321    3321    3321    3322    3323    3324    0.
GRID    3321    0       0.0     0.0     0.0             13456
GRID    3322    0       10.0    0.0                     6
GRID    3323    0       10.0    10.0    0.0             6
GRID    3324    0       0.0     10.0    0.0             123456
FORCE   1       3322    0       1.+3    1.0     0.0     1.0
FORCE   1       3323    0       1.+3    1.0     0.0     1.0
DAREA   12      3322    3       1.0     3323    3       1.0
PCOMP   3321                    1.      STRN                            +QUAD4C
+QUAD4C 3       0.5     0.      YES     3       0.5     0.      YES
$
$+++++++++++++++++++++++++++++++++++++++++++++++++++++++++++++++++++++++++++++++
$
$               BAR                         ELEMENT NO. 34
$
CBAR    3401    3401    3401    3402    0.0     0.0     1.0             +CBAR1
+CBAR1  0       0       1.0     1.0     1.0     1.0     1.0     1.0
GRID    3401    0       0.0     0.0     0.0
GRID    3402    0       1.0     0.0     0.0
SPC1    1       23456   3402
SPC1    1       123456  3401
FORCE1  1       3402    1.0     3401    3402
PLOAD1  1       3401    FX      LE      1.      1.
DAREA   12      3402    1       1.0
PBAR    3401    1       1.0     10.0    20.0    5.0     0.5             +PBAR1
+PBAR1  0.1     0.1     0.1     0.1     0.1     0.1     0.1     0.1     +PBAR2
+PBAR2  0.8     0.8     9.5
$
CBAR    3403    3403    3403    3404    3405                    2       +CBAR3
+CBAR3  0       0       1.0     1.0     1.0     -1.0    -1.0    -1.0
GRID    3403    0       0.0     0.0     0.0
GRID    3404    0       0.0     1.0     0.0
GRID    3405    0       1.0     0.0     0.0     0       123456
SPC1    1       2       3404
SPC1    1       123456  3403
FORCE   1       3404    0       1.0     1.0     0.0     1.0
MOMENT2 1       3404    1.0     3403    3404    3403    3405
DAREA   12      3404    1       1.0     3404    3       1.0
DAREA   12      3404    6       -1.0
$
CBAR    3410    3403    3410    3411    -1.0    0.0     0.0     1       +CBAR10
+CBAR10 0       0       1.0     1.414214-1.0    0.0     1.0     0.0
GRID    3410    3       1.0     90.0    45.0    3       123456
GRID    3411    3       1.41421445.0    45.0    3
FORCE   1       3411    3       1.0     0.0     1.414214 1.0
DAREA   12      3411    2       1.414214 3411   3       1.0
PBAR    3403    1       1.0     10.0    20.0    5.0     0.5             +PBAR3
+PBAR3  0.1     0.1     -0.1    -0.1    0.2     0.2     -0.2    -0.2    +PBAR4
+PBAR4  100.0   200.0   12.0
$
$$++++++++++++++++++++++++++++++++++++++++++++++++++++++++++++++++++++++++++++++
$
$               TORDRG                      ELEMENT NO. 38
GRID    3801    0       0.6     0.0     1.8             2
GRID    3802    0       1.0     0.0     1.0             2
GRID    3803    0       0.6     0.0     0.2             2
SPC     1       3803    13456   0.0
FORCE   1       3801    0       1214.   1.3559560.0     1.807278
FORCE   1       3802    0       1778.   5.5338490.0     0.0
MOMENT  1       3801    0       1214.   -0.447090.0     0.035547
MOMENT  1       3802    0       1778.   0.0     0.0     0.075983
$PTORDRG 3801    2       0.2     0.2
$
$+++++++++++++++++++++++++++++++++++++++++++++++++++++++++++++++++++++++++++++++
$
$               TETRA                       ELEMENT NO. 39
$
CTETRA  3901    3901    3901    3902    3903    3904
GRID    3901    0       0.0     0.0     0.0     0       456
GRID    3902    0       2.0     0.0     0.0     0       456
GRID    3903    0       1.0     1.7320510.0     0       1456            6/20/72
GRID    3904    0       1.0     .5773503+1.0    0       456
PSOLID  3901    1
SPC1    1       3       3901    3902    3903
SPC1    1       12      3904
FORCE   1       3904    0       1.0     0.0     0.0     1.0
DAREA   12      3904    3       1.0
$
$+++++++++++++++++++++++++++++++++++++++++++++++++++++++++++++++++++++++++++++++
$
$               DUM1                        ELEMENT NO. 53
$
$ADUM1,6,3,0,3,CTRIAX6 $
CTRIAX6 5301    1       5301    5302    5303    5304    5305    5306    +TRIAX61
+TRIAX6130.0
GRID    5301    0       6.0     0.0     0.0     0       2456
GRID    5302    0       6.0     0.0     2.0     0       2456
GRID    5303    0       6.0     0.0     4.0     0       2456
GRID    5304    0       4.238   0.0     3.0     0       2456
GRID    5305    0       2.536   0.0     2.0     0       2456
GRID    5306    0       4.238   0.0     1.0     0       2456
SPC1    1       3       5302
PLOADX  1       .0222139.03332095301    5302    5303
CTRIAX6 5311    1       5311    5312    5313    5314    5315            +TRIAX62
+TRIAX6230.0
GRID    5311    0       6.0     0.0     0.0     0       2456
GRID    5312    0       6.0     0.0     2.0     0       2456
GRID    5313    0       6.0     0.0     4.0     0       2456
GRID    5314    0       3.402   0.0     3.5     0       2456
GRID    5315    0       2.536   0.0     2.0     0       2456
$GRID   5316    0       4.238   0.0     1.0     0       2456
SPC1    1       3       5312
PLOADX1 1       5311    .0222139.03332095311    5313
$
$+++++++++++++++++++++++++++++++++++++++++++++++++++++++++++++++++++++++++++++++
$
$               QUAD8                      ELEMENT NO. 64
$
CQUAD8  6401    6401    6401    6402    6403    6404    6405    6406    +Q81
+Q81    6407    6408
GRID    6401    0       0.0     0.0     0.0
GRID    6402    0       1.0     0.0     0.0
GRID    6403    0       1.0     1.0     0.0
GRID    6404    0       0.0     1.0     0.0
GRID    6405    0       0.5     0.0     0.0
GRID    6406    0       1.0     0.5     0.0
GRID    6407    0       0.5     1.0     0.0
GRID    6408    0       0.0     0.5     0.0
SPC1    1       1256    6402    6403
SPC1    1       123456  6401    6408    6404
SPC1    1       6       6405    6406    6407
FORCE   1       6402    0       1.0     0.0     0.0     1.0
FORCE   1       6406    0       1.0     0.0     0.0     1.0
FORCE   1       6403    0       1.0     0.0     0.0     1.0
DAREA   12      6402    3       1.0     6403    3       1.0
PSHELL  6401    1       1.0     1       120.    1       1.0     0.5     +QUAD81
+QUAD81 0.2     -0.3
$
CQUAD8  6413    6413    6413    6414    6415    6416    6417    6418    +Q82
+Q82    6419    6420    .63     .67             .53     382.5
GRID    6413    3       3.0     90.     0.      3       123456
GRID    6414    3       3.0     90.     60.     2       123456
GRID    6415    3       3.0     40.     60.     1       4
GRID    6416    3       3.0     30.     0.      0       5
GRID    6417    3       3.0     90.     30.     3       123456
$ X2 CHANGED FROM 75. TO 30. FOR MSC/61.  MG 21 OCT 80
GRID    6418    3       3.0     65.     60.     1       4
GRID    6419    3       3.0     35.     30.     0       5
GRID    6420    3       3.0     60.     0.      0       5
FORCE   1       6415    2       3.14159 0.      2.71828 0.
DAREA   12      6415    3       1.73205
PSHELL  6413    1       .618034 2               1                       +QUAD83
+QUAD83 0.
$
$+++++++++++++++++++++++++++++++++++++++++++++++++++++++++++++++++++++++++++++++
$
$               HEXA                    ELEMENT NO.67
$
$
CHEXA   6701    6701    6701    6702    6703    6704    6705    6706    +C6701
+C6701  6707    6708
GRID    6701    0       0.0     0.0     0.      0       456
GRID    6702    0       0.0     .08     0.      0       456
GRID    6703    0       0.0     .08     .1      0       456
GRID    6704    0       0.0     0.      .1      0       456
GRID    6705    0       1.0     0.      0.      0       456
GRID    6706    0       1.0     .08     0.      0       456
GRID    6707    0       1.0     .08     .1      0       456
GRID    6708    0       1.0     0.      .1      0       456
PSOLID  6701    2       0       2
SPC1    1       123     6701    THRU    6704
FORCE   1       6705    0       .25     0.      0.      -1.
FORCE   1       6706    0       .25     0.      0.      -1.
FORCE   1       6707    0       .25     0.      0.      -1.
FORCE   1       6708    0       .25     0.      0.      -1.
PLOAD4  1       6701    -125.                           6701    6703
$
$+++++++++++++++++++++++++++++++++++++++++++++++++++++++++++++++++++++++++++++++
$
$               PENTA                   ELEMENT NO. 68
$
CPENTA  6801    6801    6801    6802    6803    6804    6805    6806
GRID    6801            .1      .1      -1.             456
GRID    6802            .1      -.1     -1.             456
GRID    6803            -.1     0.      -1.             456
GRID    6804            .1      .1      1.              456
GRID    6805            .1      -.1     1.              456
GRID    6806            -.1     0.      1.              456
SPC1    1       123     6801    6802    6803
FORCE   1       6804    0       .3333   0.      0.      1.
FORCE   1       6805    0       .3333   0.      0.      1.
FORCE   1       6806    0       .3333   0.      0.      1.
PSOLID  6801    2       0       2
PLOAD4  1       6801    110.                            6801    6805
DAREA   12      6804    1       1.0
$
$+++++++++++++++++++++++++++++++++++++++++++++++++++++++++++++++++++++++++++++++
$
$               BEND                    ELEMENT NO. 69
$
CBEND   6901    6901    6901    6902    .5      1.+6            1
GRID    6901            0.      0.      0.
GRID    6902            1.      0.      0.
SPC1    1       123456  6902
PLOAD1  1       6901    FY      FR      0.      1.      1.      1.
PLOAD1  1       6901    FZ      FR      0.      1.      1.      1.
PBEND   6901    2       .1      .01     .01     .02                     +PB691
+PB691  .05     .05     .05     -.05
DAREA   12      6901    2       1.0
$
CBEND   6911    6911    6911    6912    1.      0.      0.      3
GRID    6911            0.      0.      0.              123456
GRID    6912            1.      1.      0.
FORCE   1       6912    0       1.      0.      1.      1.
FORCE   1       6912    0       1.      1.      0.      0.
PBEND   6911    2       2       .1      .05     100.    1.
DAREA   12      6912    1       1.0
$
$+++++++++++++++++++++++++++++++++++++++++++++++++++++++++++++++++++++++++++++++
$
$               TRIAR                   ELEMENT NO. 70
$
CTRIAR  7051    7051    7051    7052    7053    0.0
GRID    7051    0       0.0     0.0     0.0
GRID    7052    0       1.0     0.0     0.0
GRID    7053    0       0.5     1.0     0.0
SPC1    1       6       7053
SPC1    1       12345   7051    7052
FORCE2  1       7053    1.0     7051    7052    7052    7053
DAREA   12      7053    3       1.0
$
CTRIAR  7060    7051    7060    7061    7062    0.0
GRID    7060    3       1.0     90.     45.     3       12345
GRID    7061    3       1.41421445.     45.     3       12345
GRID    7062    3       2.06155375.9637645.     3       6
FORCE2  1       7062    1.0     7060    7061    7060    7062
DAREA   12      7062    3       1.0
PSHELL  7051    1       .1      1       10.+2   1       1.0
$
CTRIAR  7070    7071    7070    7071    7072    0.0
GRID    7070    3       1.0     90.     45.     3       12345
GRID    7071    3       1.41421445.     45.     3       12345
GRID    7072    3       2.06155375.9637645.     3       6
FORCE2  1       7072    1.0     7070    7071    7070    7072
DAREA   12      7072    3       1.0
PCOMP   7071                    1.      STRN                            +TRIARC
+TRIARC 3       0.5     0.      YES     3       0.5     0.      YES
$
$+++++++++++++++++++++++++++++++++++++++++++++++++++++++++++++++++++++++
$
$               TRIA3                   ELEMENT NO. 74
$
CTRIA3  7451    7451    7451    7452    7453    0.0
GRID    7451    0       0.0     0.0     0.0
GRID    7452    0       1.0     0.0     0.0
GRID    7453    0       0.5     1.0     0.0
SPC1    1       6       7453
SPC1    1       123456  7451    7452
FORCE2  1       7453    1.0     7451    7452    7452    7453
DAREA   12      7453    3       1.0
$
CTRIA3  7460    7451    7460    7461    7462    0.0
GRID    7460    3       1.0     90.     45.     3       123456
GRID    7461    3       1.41421445.     45.     3       123456
GRID    7462    3       2.06155375.9637645.     3       6
FORCE2  1       7462    1.0     7460    7461    7460    7462
DAREA   12      7462    3       1.0
PSHELL  7451    1       .1      1       10.+2   1       1.0
$
$
$+++++++++++++++++++++++++++++++++++++++++++++++++++++++++++++++++++++++++++++++
$
$         TRIA6                     ELEMENT NO. 75
$
CTRIA6  7501    7501    7501    7502    7503    7504    7505    7506
GRID    7501    0       0.0     0.0     0.0
GRID    7502    0       1.0     0.0     0.0
GRID    7503    0       0.0     1.0     0.0
GRID    7504    0       0.5     0.0     0.0
GRID    7505    0       0.5     0.5     0.0
GRID    7506    0       0.0     0.5     0.0
SPC1    1       123456  7501    7506    7503
SPC1    1       1246    7502
SPC1    1       6       7505    7504
FORCE   1       7502    0       1.0     0.      0.0     1.0
DAREA   12      7502    3       1.0
PSHELL  7501    1       .1      1       10.+2   1       1.0
$
$
$+++++++++++++++++++++++++++++++++++++++++++++++++++++++++++++++++++++++++++++++
$
$               *******                     ELEMENT NO. 76
$
$       THIS ELEMENT DOES NOT EXIST IN NASTRAN.
$
$+++++++++++++++++++++++++++++++++++++++++++++++++++++++++++++++++++++++++++++++
$
$               QUADR                   ELEMENT NO. 99
$
CQUADR  9901    9901    9901    9902    9903    9904    0.
GRID    9901    0       0.0     0.0     0.0
GRID    9902    0       1.0     0.0     0.0
GRID    9903    0       1.0     1.0     0.0
GRID    9904    0       0.0     1.0     0.0
SPC1    1       125     9902    9903
SPC1    1       12345   9901    9904
FORCE   1       9902    0       1.0     0.0     0.0     1.0
FORCE   1       9903    0       1.0     0.0     0.0     1.0
DAREA   12      9902    3       1.0     9903    3       1.0
PSHELL  9901    1       1.0     1       120.0   1       1.0     0.5     +QUADR1
+QUADR1 0.2     -0.3
$
CQUADR  9913    9913    9913    9914    9915    9916    382.5           +QUADR2
+QUADR2                 .63     .67             .53
GRID    9913    3       3.0     90.     0.      3       123456
GRID    9914    3       3.0     90.     60.     2       123456
GRID    9915    3       3.0     40.     60.     1       4
GRID    9916    3       3.0     30.     0.      0       5
FORCE   1       9915    2       3.14159 0.      2.71828 0.
DAREA   12      9915    3       1.73205
PSHELL  9913    1       .618034 2               1               .30103  +QUADR3
+QUADR3 0.
$
$+++++++++++++++++++++++++++++++++++++++++++++++++++++++++++++++++++++++++++++++
$
$
$       GENEL EXERCISE -- PYLON ICS
$       NOTE: ELEMENT 77 DOES NOT EXIST IN NASTRAN
$
GENEL   1               7702    1       7702    2       7702    3       +C10
+C10    7702    4       7702    5       7702    6                       +C11
+C11    UD              7701    1       7701    2       7701    3       +C12
+C12    7701    4       7701    5       7701    6                       +C13
+C13    Z       2.4825-40.0     -6.696-50.0     -1.021-50.0     1.0467-3+C14
+C14    0.0     5.3485-50.0     5.7754-52.2291-50.0     2.4784-60.0     +C15
+C15    2.9134-60.0     3.4608-64.5557-70.0     5.0275-6
FORCE   1       7702    0       1.0     1.0
GRID    7701            206.5   +93.0   137.5           123456
GRID    7702            190.0   +93.0   99.8
FORCE   1       7702    0       1.0     1.0
$
$
$+++++++++++++++++++++++++++++++++++++++++++++++++++++++++++++++++++++++++++++++
$
$               DMIG                    ELEMENT NO. 100
$                                       NOTE:P.S. 3 ADDED 14-JAN-82
GRID    10000
GRID    10001                                           3
DMIG    MATK    0       6       2       0
DMIG    MATK    10000   3               10000   3       1.D6            +
        10001   3       -1.D6
DMIG    MATK    10001   3               10001   3       1.D6
DMIG    MATLOAD 0       9       1       0
DMIG*   MATLOAD         1                                               +DMIG
*DMIG   10000           3               1.
$
$+++++++++++++++++++++++++++++++++++++++++++++++++++++++++++++++++++++++++++++++
$
$               RBAR                    ELEMENT NO. 101
$
RBAR    10101   10101   10102   234     123
GRID    10101   2       1.0     2.0     3.0     2       234
GRID    10102   2       4.0     6.0     15.0    2       123
FORCE   1       10101   2       1.0     1.0
$
$+++++++++++++++++++++++++++++++++++++++++++++++++++++++++++++++++++++++++++++++
$
$               RBE1                    ELEMENT NO. 102
$
RBE1    10201   10201   234     10202   123                             +R10201
GRID    10201           1.0     2.0     3.0             234
GRID    10202           4.0     6.0     15.0            123
+R10201 UM      10201   156     10202   456
FORCE   1       10201           1.0     1.0
$
$+++++++++++++++++++++++++++++++++++++++++++++++++++++++++++++++++++++++++++++++
$
$               RBE2                    ELEMENT NO. 103
$
RBE2    10301   10301   123456  10302
FORCE   1       10302           1.0     1.0
GRID    10302           4.0     6.0     15.0            0
GRID    10301           1.0     2.0     3.0             213456
$
$+++++++++++++++++++++++++++++++++++++++++++++++++++++++++++++++++++++++++++++++
$
$               RROD                    ELEMENT NO. 104
$
RROD    10401   10401   10402   1
GRID    10401           0.0     0.0     0.0             23456
GRID    10402           1.0     0.0     0.0             123456
FORCE   1       10401           1.0     1.0
$
$+++++++++++++++++++++++++++++++++++++++++++++++++++++++++++++++++++++++++++++++
$
$               RTRPLT                  ELEMENT NO. 105
$
RTRPLT  10501   10501   10502   10503   234             123             +R10501
+R10501 156     123456  456
GRID    10501           1.0     2.0     3.0             234
GRID    10502           4.0     6.0     15.0
GRID    10503           7.0     10.0    27.0            123
FORCE   1       10501           1.      1.
$
$+++++++++++++++++++++++++++++++++++++++++++++++++++++++++++++++++++++++++++++++
$
$       RBE3  ELEMENT  NO.  106
$
RBE3    10601           10605   123456  2.      123     10601           +R10601A
+R10601A2.      12      10602                                           +R10601B
+R10601B1.      12      10603                                           +R10601C
+R10601C1.      1       10604   2.      2       10604                   +R10601D
+R10601D1.      3       10602   10603   10604
GRID    10601           0.      0.      -3.
GRID    10602           0.      4.      0.
GRID    10603           0.      0.      3.
GRID    10604           0.      -4.     0.
GRID    10605           0.      0.      0.
FORCE   1       10605           1.0     1.0
MOMENT  1       10605           1.0     1.0
SPC1    1       123456  10601   10602   10603   10604
SPC1    3       123456  10605
$
RBE3    10611           10614   123     .001    123     10611   10612   +R10611A
+R10611A10613                                                           +R10611B
+R10611BUM      10611   123
GRID    10611   2       0.      0.      -3.     2
GRID    10612   2       0.      2.59808 1.5     2
GRID    10613   2       0.      -2.598081.5     2
GRID    10614   2       0.      0.      0.      2
FORCE   1       10611   2       1.      1.
SPC1    1       123456  10612   10613   10614
SPC1    1       456     10611
SPC1    3       123     10611
$
$+++++++++++++++++++++++++++++++++++++++++++++++++++++++++++++++++++++++++++++++
$
$       FINITE DEFORMATION QUAD4 (QUADFD)         ELEMENT  NO.  139
$
$+++++++++++++++++++++++++++++++++++++++++++++++++++++++++++++++++++++++++++++++
GRID    13901           0.      0.0     0.
GRID    13902           1.0     0.0     0.
GRID    13903           1.0     1.0     0.
GRID    13904           0.0     1.0     0.
$
CQUAD4  13901   13901   13901   13902   13903   13904
PLplane 13901   13901
MATHP   13901   .3      .1      .326
$
SPC1    1       23456   13902   13903
SPC1    1       123456  13901   13904
FORCE   1       13902   0       750.    1.0     0.0     0.0
FORCE   1       13903   0       750.    1.0     0.0     0.0
$
$+++++++++++++++++++++++++++++++++++++++++++++++++++++++++++++++++++++++++++++++
$
$       FINITE DEFORMATION HEXA(8) (HEXAFD)             ELEMENT  NO.  140
$
$+++++++++++++++++++++++++++++++++++++++++++++++++++++++++++++++++++++++++++++++
CHEXA   14001   14001   14001   14002   14003   14004   14005   14006   +C14001
+C14001 14007   14008
GRID    14001   0       0.0     0.0     0.      0       456
GRID    14002   0       0.0     .08     0.      0       456
GRID    14003   0       0.0     .08     .1      0       456
GRID    14004   0       0.0     0.      .1      0       456
GRID    14005   0       1.0     0.      0.      0       456
GRID    14006   0       1.0     .08     0.      0       456
GRID    14007   0       1.0     .08     .1      0       456
GRID    14008   0       1.0     0.      .1      0       456
PLSOLID 14001   14001
MATHP   14001   1.5e6   .423e6  4.1140e6
SPC1    1       123     14001   THRU    14004
FORCE   1       14005   0       .25     0.      0.      -1.
FORCE   1       14006   0       .25     0.      0.      -1.
FORCE   1       14007   0       .25     0.      0.      -1.
FORCE   1       14008   0       .25     0.      0.      -1.
PLOAD4  1       14001   -125.                           14001   14003
$
$+++++++++++++++++++++++++++++++++++++++++++++++++++++++++++++++++++++++++++++++
$
$       HEXA  (p-element)               ELEMENT NO. 141
$
$       p-element data
$
CHEXA   14101   14101   14101   14102   14103   14104   14105   14106   +C14101
+C14101 14107   14108
GRID    14101   0       0.0     0.0     0.      0       456
GRID    14102   0       0.0     .08     0.      0       456
GRID    14103   0       0.0     .08     .1      0       456
GRID    14104   0       0.0     0.      .1      0       456
GRID    14105   0       1.0     0.      0.      0       456
GRID    14106   0       1.0     .08     0.      0       456
GRID    14107   0       1.0     .08     .1      0       456
GRID    14108   0       1.0     0.      .1      0       456
PSOLID  14101   2       0       2
SPC1    1       123     14101   THRU    14104
FORCE   1       14105   0       .25     0.      0.      -1.
FORCE   1       14106   0       .25     0.      0.      -1.
FORCE   1       14107   0       .25     0.      0.      -1.
FORCE   1       14108   0       .25     0.      0.      -1.
PLOAD4  1       14101   -125.                           14101   14103
$
$+++++++++++++++++++++++++++++++++++++++++++++++++++++++++++++++++++++++++++++++
$
$       PENTA  (p-element)              ELEMENT NO. 142
$
CPENTA  14201   14201   14201   14202   14203   14204   14205   14206
GRID    14201           .1      .1      -1.             456
GRID    14202           .1      -.1     -1.             456
GRID    14203           -.1     0.      -1.             456
GRID    14204           .1      .1      1.              456
GRID    14205           .1      -.1     1.              456
GRID    14206           -.1     0.      1.              456
SPC1    1       123     14201   14202   14203
FORCE   1       14204   0       .3333   0.      0.      1.
FORCE   1       14205   0       .3333   0.      0.      1.
FORCE   1       14206   0       .3333   0.      0.      1.
PSOLID  14201   2       0       2
PLOAD4  1       14201   110.                            14201   14205
DAREA   12      14204   1       1.0
$
$+++++++++++++++++++++++++++++++++++++++++++++++++++++++++++++++++++++++++++++++
$
$       TETRA  (p-element)              ELEMENT NO. 143
$
CTETRA  14301   14301   14301   14302   14303   14304
GRID    14301   0       0.0     0.0     0.0     0       456
GRID    14302   0       2.0     0.0     0.0     0       456
GRID    14303   0       1.0     1.7320510.0     0       1456            6/20/72
GRID    14304   0       1.0     .5773503+1.0    0       456
PSOLID  14301   1
SPC1    1       3       14301   14302   14303
SPC1    1       12      14304
FORCE   1       14304   0       1.0     0.0     0.0     1.0
DAREA   12      14304   3       1.0
$
$+++++++++++++++++++++++++++++++++++++++++++++++++++++++++++++++++++++++++++++++
$
$               FINITE DEFORMATION PENTA(6) (PENTAFD)     ELEMENT NO. 160
$
$+++++++++++++++++++++++++++++++++++++++++++++++++++++++++++++++++++++++++++++++
CPENTA  16000   16001   16001   16002   16003   16005   16006   16007
CPENTA  16001   16001   16001   16003   16004   16005   16007   16008
PLSOLID 16001   16001
MATHP   16001   1.5e6   .423e6  4.1140e6
GRID    16001   0       0.0     0.0     0.0     0       456
GRID    16002   0       1.0     0.0     0.0     0       456
GRID    16003   0       1.0     1.0     0.0     0       456
GRID    16004   0       0.0     1.0     0.0     0       456
GRID    16005   0       0.0     0.0     1.0     0       456
GRID    16006   0       1.0     0.0     1.0     0       456
GRID    16007   0       1.0     1.0     1.0     0       456
GRID    16008   0       0.0     1.0     1.0     0       456
SPC1    1       1       16001   16004   16005   16008
SPC1    1       2       16005
SPC1    1       23      16001
PLOAD4  1       16000   -15000.                         16002   16007
$
$+++++++++++++++++++++++++++++++++++++++++++++++++++++++++++++++++++++++++++++++
$
$               FINITE DEFORMATION TETRA(4) (TETRAFD)     ELEMENT NO. 161
$
$+++++++++++++++++++++++++++++++++++++++++++++++++++++++++++++++++++++++++++++++
CTETRA  16100   16101   16101   16102   16106   16103
CTETRA  16101   16101   16101   16105   16106   16108
CTETRA  16102   16101   16108   16103   16104   16101
CTETRA  16103   16101   16108   16103   16107   16106
CTETRA  16104   16101   16101   16108   16103   16106
PLSOLID 16101   16101
MATHP   16101   1.5e6   .423e6  4.1140e6
GRID    16101   0       0.0     0.0     0.0     0       456
GRID    16102   0       1.0     0.0     0.0     0       456
GRID    16103   0       1.0     1.0     0.0     0       456
GRID    16104   0       0.0     1.0     0.0     0       456
GRID    16105   0       0.0     0.0     1.0     0       456
GRID    16106   0       1.0     0.0     1.0     0       456
GRID    16107   0       1.0     1.0     1.0     0       456
GRID    16108   0       0.0     1.0     1.0     0       456
SPC1    1       1       16101   16104   16105   16108
SPC1    1       2       16105
SPC1    1       23      16101
PLOAD4  1       16100    -15000.                         16102    16101
PLOAD4  1       16103    -15000.                         16107    16108
$
$+++++++++++++++++++++++++++++++++++++++++++++++++++++++++++++++++++++++++++++++
$
$               FINITE DEFORMATION TRIA3 (TRIAFD)     ELEMENT NO. 162
$
$+++++++++++++++++++++++++++++++++++++++++++++++++++++++++++++++++++++++++++++++
CTRIA3  16200   16201   16201   16202   16203
CTRIA3  16201   16201   16201   16203   16204
MATHP   16201   .3      .1      .326
PLPLANE 16201   16201
GRID    16201   0       0.0     0.0     0.0
GRID    16202   0       1.0     0.0     0.0
GRID    16203   0       1.0     1.0     0.0
GRID    16204   0       0.0     1.0     0.0
SPC1    1       23456   16201   16202
SPC1    1       13456   16201   16204
SPC1    1       3456    16203
FORCE1  1       16202   750.0   16201   16202
FORCE1  1       16203   750.0   16204   16203
$
$+++++++++++++++++++++++++++++++++++++++++++++++++++++++++++++++++++++++++++++++
$
$               FINITE DEFORMATION HEXA(20) (HEXAFD)     ELEMENT NO. 163
$
$+++++++++++++++++++++++++++++++++++++++++++++++++++++++++++++++++++++++++++++++
CHEXA   16300   16301   16301   16302   16303   16304   16305   16306   +C16301
+C16301 16307   16308   16309   16310   16311   16312   16313   16314   +C16302
+C16302 16315   16316   16317   16318   16319   16320
PLSOLID 16301   16301
MATHP   16301   1.5e6   .423e6  4.1140e6
GRID    16301   0       0.0     0.0     0.0     0       456
GRID    16302   0       1.0     0.0     0.0     0       456
GRID    16303   0       1.0     1.0     0.0     0       456
GRID    16304   0       0.0     1.0     0.0     0       456
GRID    16305   0       0.0     0.0     1.0     0       456
GRID    16306   0       1.0     0.0     1.0     0       456
GRID    16307   0       1.0     1.0     1.0     0       456
GRID    16308   0       0.0     1.0     1.0     0       456
GRID    16309           0.5     0.0     0.              456
GRID    16310           1.0     0.5     0.              456
GRID    16311           0.5     1.0     0.              456
GRID    16312           0.0     0.5     0.              456
GRID    16313           0.0     0.0     0.5             456
GRID    16314           1.0     0.      0.5             456
GRID    16315           1.0     1.0     0.5             456
GRID    16316           0.      1.      0.5             456
GRID    16317           0.5     0.0     1.              456
GRID    16318           1.0     0.5     1.              456
GRID    16319           0.5     1.      1.              456
GRID    16320           0.      0.5     1.              456
SPC1    1       1       16301   16304   16305   16308   16312   16313   +sp1a
+sp1a   16316   16320
SPC1    1       2       16305
SPC1    1       23      16301
PLOAD4  1       16300   -15000.                         16302   16307
$
$+++++++++++++++++++++++++++++++++++++++++++++++++++++++++++++++++++++++++++++++
$
$               FINITE DEFORMATION QUAD (QUADFD)     ELEMENT NO. 164
$
$+++++++++++++++++++++++++++++++++++++++++++++++++++++++++++++++++++++++++++++++
CQUAD   16410   16411   16411   16412   16413   16414   16415   16416   +QD1
+QD1    16417   16418   16419
PLPLANE 16411   16411
MATHP   16411   .3      .1      .326
GRID    16411   0       0.0     0.0     0.0
GRID    16412   0       1.0     0.0     0.0
GRID    16413   0       1.0     1.0     0.0
GRID    16414   0       0.0     1.0     0.0
GRID    16415           0.5     0.0     0.
GRID    16416           1.0     0.5     0.
GRID    16417           0.5     1.0     0.
GRID    16418           0.0     0.5     0.
GRID    16419           0.5     0.5     0.
SPC1    1       23456   16411   16412   16415
SPC1    1       13456   16411   16414   16418
SPC1    1       3456    16413   16416   16417
FORCE1  1       16412   250.0   16411   16412
FORCE1  1       16413   250.0   16414   16413
FORCE1  1       16416   1000.0  16418   16416
$
$+++++++++++++++++++++++++++++++++++++++++++++++++++++++++++++++++++++++++++++++
$
$               FINITE DEFORMATION PENTA(15) (PENTAFD)     ELEMENT NO. 165
$
$+++++++++++++++++++++++++++++++++++++++++++++++++++++++++++++++++++++++++++++++
CPENTA  16500   16501   16501   16502   16503   16505   16506   16507   +C16501
+C16501 16509   16510   16521   16513   16514   16515   16517   16518   +C16502
+C16502 16522
CPENTA  16501   16501   16501   16503   16504   16505   16507   16508   +C16503
+C16503 16521   16511   16512   16513   16515   16516   16522   16519   +C16504
+C16504 16520
PLSOLID 16501   16501
MATHP   16501   1.5e6   .423e6  4.1140e6
GRID    16501   0       0.0     0.0     0.0     0       456
GRID    16502   0       1.0     0.0     0.0     0       456
GRID    16503   0       1.0     1.0     0.0     0       456
GRID    16504   0       0.0     1.0     0.0     0       456
GRID    16505   0       0.0     0.0     1.0     0       456
GRID    16506   0       1.0     0.0     1.0     0       456
GRID    16507   0       1.0     1.0     1.0     0       456
GRID    16508   0       0.0     1.0     1.0     0       456
GRID    16509           0.5     0.0     0.              456
GRID    16510           1.0     0.5     0.              456
GRID    16511           0.5     1.0     0.              456
GRID    16512           0.0     0.5     0.              456
GRID    16513           0.0     0.0     0.5             456
GRID    16514           1.0     0.      0.5             456
GRID    16515           1.0     1.      0.5             456
GRID    16516           0.      1.      0.5             456
GRID    16517           0.5     0.0     1.              456
GRID    16518           1.0     0.5     1.              456
GRID    16519           0.5     1.      1.              456
GRID    16520           0.      0.5     1.              456
GRID    16521           0.5     0.5     0.              456
GRID    16522           0.5     0.5     1.              456
SPC1    1       1       16501   16504   16505   16508   16512   16513   +sp2a
+sp2a   16516   16520
SPC1    1       2       16505
SPC1    1       23      16501
PLOAD4  1       16500   -15000.                         16502   16507
$
$+++++++++++++++++++++++++++++++++++++++++++++++++++++++++++++++++++++++++++++++
$
$               FINITE DEFORMATION TETRA(10) (TETRAFD)     ELEMENT NO. 166
$
$+++++++++++++++++++++++++++++++++++++++++++++++++++++++++++++++++++++++++++++++
CTETRA  16600   16601   16601   16602   16606   16603   16609   16614   +C16601
+C16601 16626   16621   16610   16623
CTETRA  16601   16601   16601   16605   16606   16608   16613   16617   +C16602
+C16602 16626   16625   16620   16622
CTETRA  16602   16601   16608   16603   16604   16601   16624   16611   +C16603
+C16603 16616   16625   16621   16612
CTETRA  16603   16601   16608   16603   16607   16606   16624   16615   +C16604
+C16604 16619   16622   16623   16618
CTETRA  16604   16601   16601   16608   16603   16606   16625   16624   +C16605
+C16605 16621   16626   16622   16623
PLSOLID 16601   16601
MATHP   16601   1.5e6   .423e6  4.1140e6
GRID    16601   0       0.0     0.0     0.0     0       456
GRID    16602   0       1.0     0.0     0.0     0       456
GRID    16603   0       1.0     1.0     0.0     0       456
GRID    16604   0       0.0     1.0     0.0     0       456
GRID    16605   0       0.0     0.0     1.0     0       456
GRID    16606   0       1.0     0.0     1.0     0       456
GRID    16607   0       1.0     1.0     1.0     0       456
GRID    16608   0       0.0     1.0     1.0     0       456
GRID    16609           0.5     0.0     0.              456
GRID    16610           1.0     0.5     0.              456
GRID    16611           0.5     1.0     0.              456
GRID    16612           0.0     0.5     0.              456
GRID    16613           0.0     0.0     0.5             456
GRID    16614           1.0     0.      0.5             456
GRID    16615           1.0     1.      0.5             456
GRID    16616           0.      1.      0.5             456
GRID    16617           0.5     0.0     1.              456
GRID    16618           1.0     0.5     1.              456
GRID    16619           0.5     1.      1.              456
GRID    16620           0.      0.5     1.              456
$ ... 6 like lines cut
SPC1    1       1       16601   16604   16605   16608   16612   16613   +sp3a
+sp3a   16616   16620   16625
SPC1    1       2       16605
SPC1    1       23      16601
PLOAD4  1       16600    -15000.                         16602    16601
PLOAD4  1       16603    -15000.                         16607    16608
$
$+++++++++++++++++++++++++++++++++++++++++++++++++++++++++++++++++++++++++++++++
$
$               FINITE DEFORMATION TRIA6 (TRIAFD)     ELEMENT NO. 167
$
$+++++++++++++++++++++++++++++++++++++++++++++++++++++++++++++++++++++++++++++++
CTRIA6  16700   16701   16701   16702   16703   16705   16706   16709
CTRIA6  16701   16701   16701   16703   16704   16709   16707   16708
PLPLANE 16701   16701
MATHP   16701   .3      .1      .326
GRID    16701   0       0.0     0.0     0.0
GRID    16702   0       1.0     0.0     0.0
GRID    16703   0       1.0     1.0     0.0
GRID    16704   0       0.0     1.0     0.0
GRID    16705           0.5     0.0     0.
GRID    16706           1.0     0.5     0.
GRID    16707           0.5     1.0     0.
GRID    16708           0.0     0.5     0.
GRID    16709           0.5     0.5     0.
SPC1    1       23456   16701   16702   16705
SPC1    1       13456   16701   16704   16708
SPC1    1       3456    16703   16706   16707
FORCE1  1       16702   250.0   16701   16702
FORCE1  1       16703   250.0   16704   16703
FORCE1  1       16706   1000.0  16708   16706
$
$+++++++++++++++++++++++++++++++++++++++++++++++++++++++++++++++++++++++++++++++
$
$        FINITE DEFORMATION AXISYMMETRIC TRIAX(3) (TRIAXFD)     ELEMENT NO. 168
$
$+++++++++++++++++++++++++++++++++++++++++++++++++++++++++++++++++++++++++++++++
CTRIAX  16800   16801   16801   16802   16803
CTRIAX  16801   16801   16801   16803   16804
PLPLANE 16801   16801
MATHP   16801   .3      .1      .326
GRID    16801   0       0.0     0.0     0.0
GRID    16802   0       1.0     0.0     0.0
GRID    16803   0       1.0     1.0     0.0
GRID    16804   0       0.0     1.0     0.0
SPC1    1       23456   16801   16802
SPC1    1       13456   16801   16804
SPC1    1       3456    16803
FORCE1  1       16802   750.0   16801   16802
FORCE1  1       16803   750.0   16804   16803
$
$+++++++++++++++++++++++++++++++++++++++++++++++++++++++++++++++++++++++++++++++
$
$       FINITE DEFORMATION AXISYMMETRIC TRIAX(6) (TRIAFD)     ELEMENT NO. 169
$
$+++++++++++++++++++++++++++++++++++++++++++++++++++++++++++++++++++++++++++++++
CTRIAX  16900   16901   16901   16902   16903   16905   16906   16909
CTRIAX  16901   16901   16901   16903   16904   16909   16907   16908
PLPLANE 16901   16901
MATHP   16901   .3      .1      .326
GRID    16901   0       0.0     0.0     0.0
GRID    16902   0       1.0     0.0     0.0
GRID    16903   0       1.0     1.0     0.0
GRID    16904   0       0.0     1.0     0.0
GRID    16905           0.5     0.0     0.
GRID    16906           1.0     0.5     0.
GRID    16907           0.5     1.0     0.
GRID    16908           0.0     0.5     0.
GRID    16909           0.5     0.5     0.
SPC1    1       23456   16901   16902   16905
SPC1    1       13456   16901   16904   16908
SPC1    1       3456    16903   16906   16907
FORCE1  1       16902   250.0   16901   16902
FORCE1  1       16903   250.0   16904   16903
FORCE1  1       16906   1000.0  16908   16906
$
$+++++++++++++++++++++++++++++++++++++++++++++++++++++++++++++++++++++++++++++++
$
$               BEAML                        ELEMENT NO.  170
$
CBEAM   17000   17000   17001   17002   0.      0.      1.
GRID    17001   0       0.0     0.0     0.0
GRID    17002   0       1.0     0.0     0.0
SPC1    1       23456   17002
SPC1    1       123456  17001
FORCE   1       17002   0       1.0     1.0     0.0     0.0
PBEAML  17000   1               box
        25.495  25.495  1.0215  1.0215
DAREA   12      17002   1       1.0
$
$++++++++++++++++++++++++++++++++++++++++++++++++++++++++++++++++++++++++++++++
$
$               BARL                         ELEMENT NO. 171
$
CBAR    17101   17103   17101   17102   0.0     0.0     1.0
        0       0       1.0     1.0     1.0     1.0     1.0     1.0
GRID    17101   0       0.0     0.0     0.0
GRID    17102   0       1.0     0.0     0.0
SPC1    1       23456   17102
SPC1    1       123456  17101
FORCE1  1       17102   1.0     17101   17102
PLOAD1  1       17101   FX      LE      1.      1.
FORCE1  1       17102   1.0     17101   17102
PLOAD1  1       17101   FX      LE      1.      1.
DAREA   12      17102   1       1.0
$
CBAR    17103   17103   17103   17104   17105                   2
        0       0       1.0     1.0     1.0     -1.0    -1.0    -1.0
GRID    17103   0       0.0     0.0     0.0
GRID    17104   0       0.0     1.0     0.0
GRID    17105   0       1.0     0.0     0.0     0       123456
SPC1    1       2       17104
SPC1    1       123456  17103
FORCE   1       17104   0       1.0     1.0     0.0     1.0
MOMENT2 1       17104   1.0     17103   17104   17103   17105
DAREA   12      17104   1       1.0     17104    3       1.0
DAREA   12      17104   6       -1.0
$
CBAR    17110   17103   17110   17111   -1.0    0.0     0.0     1
        0       0       1.0     1.414214-1.0    0.0     1.0     0.0
GRID    17110    3      1.0     90.0    45.0    3       123456
GRID    17111    3      1.41421445.0    45.0    3
FORCE   1       17111   3       1.0     0.0     1.414214 1.0
DAREA   12      17111   2       1.41421417111   3       1.0
PBARL   17103   1               tube
        4.04    4.00
$+++++++++++++++++++++++++++++++++++++++++++++++++++++++++++++++++++++++++++++++
$
$               BEAM  (p-Element)                 ELEMENT NO.  172
$
CBEAM   17200   17200   17201   17202   0.      0.      1.
GRID    17201   0       0.0     0.0     0.0
GRID    17202   0       1.0     0.0     0.0
SPC1    1       23456   17202
SPC1    1       123456  17201
FORCE   1       17202   0       1.0     1.0     0.0     0.0
PBEAM   17200   1       100.    1.+4    1.+4            1.0
        2.0     1.0
        YESA    1.0
DAREA   12      17202   1       1.0
$
$
$+++++++++++++++++++++++++++++++++++++++++++++++++++++++++++++++++++++++++++++++
$
$               QUAD4 (p-Element)                ELEMENT NO. 173
$
CQUAD4  17301   17301   17301   17302   17303   17304    0.
GRID    17301   0       0.0     0.0     0.0
GRID    17302   0       1.0     0.0     0.0
GRID    17303   0       1.0     1.0     0.0
GRID    17304   0       0.0     1.0     0.0
SPC1    1       1256    17302   17303
SPC1    1       123456  17301   17304
FORCE   1       17302   0       1.0     0.0     0.0     1.0
FORCE   1       17303   0       1.0     0.0     0.0     1.0
DAREA   12      17302   3       1.0     17303   3       1.0
PSHELL  17301   1       1.0     1       120.0   1       1.0     0.5
        0.2     -0.3
$
$
CQUAD4 	17313   17313   17313   17314   17315  	17316  	382.5
                       	.63     .67          	.53
GRID   	17313   3       3.0     90.     0.      3      	123456
GRID   	17314   3       3.0     90.     60.     2      	123456
GRID   	17315   3       3.0     40.     60.     1      	4
GRID   	17316   3       3.0     30.     0.      0      	5
FORCE   1       17315   2       3.14159 0.      2.71828 0.
DAREA   12      17315   3       1.73205
PSHELL  17313   1       .618034 2               1           	.30103
        0.
$
$ COMPOSITE TESTING , WITH STRAIN THEORY, ADDED 17JUN87, LNA
$CQUAD4	17321   17321   17321   17322   17323   17324   0.
$GRID    17321   0       0.0     0.0     0.0             13456
$GRID    17322   0       10.0    0.0                     6
$GRID    17323   0       10.0    10.0    0.0             6
$GRID    17324   0       0.0     10.0    0.0             123456
$FORCE   1       17322   0       1.+3    1.0     0.0     1.0
$FORCE   1       17323   0       1.+3    1.0     0.0     1.0
$DAREA   12      17322   3       1.0     17323   3       1.0
$PCOMP   17321                   1.      STRN
$        3       0.5     0.      YES     3       0.5     0.      YES
$
$+++++++++++++++++++++++++++++++++++++++++++++++++++++++++++++++++++++++
$
$               TRIA3  (p-Element)                 ELEMENT NO. 174
$
$
CTRIA3  17451   17451   17451   17452   17453   0.0
GRID    17451   0       0.0     0.0     0.0
GRID    17452   0       1.0     0.0     0.0
GRID    17453   0       0.5     1.0     0.0
SPC1    1       6       17453
SPC1    1       123456  17451   17452
FORCE2  1       17453   1.0     17451   17452   17452   17453
DAREA   12      17453   3       1.0
$
CTRIA3  17460   17451   17460   17461   17462   0.0
GRID    17460   3       1.0     90.     45.     3       123456
GRID    17461   3       1.41421445.     45.     3       123456
GRID    17462   3       2.06155375.9637645.     3       6
FORCE2  1       17462   1.0     17460   17461   17460   17462
DAREA   12      17462   3       1.0
PSHELL  17451   1       .1      1       10.+2   1	1.0
$
$+++++++++++++++++++++++++++++++++++++++++++++++++++++++++++++++++++++++
$
$               RSSCON                             ELEMENT NO. 175
$
$
RSSCON  17501   ELEM    17503   17502
$
CQUAD4  17503   17503   17510   17509   17511   17512
GRID    17509   0       1.      0.0     .5      0
GRID    17510   0       1.      1.      .5      0
GRID    17511   0       2.      0.0     .5      0
GRID    17512   0       2.      1.      .5      0
PSHELL  17503   1       1.0     1               1
$
CHEXA   17502   17502   17501   17502   17504   17503   17505   17506   +
+       17508   17507
GRID    17501   0       0.0     0.0     0.0     0
GRID    17502   0       1.      0.0     0.0     0
GRID    17503   0       0.0     1.      0.0     0
GRID    17504   0       1.      1.      0.0     0
GRID    17505   0       0.0     0.0     1.      0
GRID    17506   0       1.      0.0     1.      0
GRID    17507   0       0.0     1.      1.      0
GRID    17508   0       1.      1.      1.      0
PSOLID  17502   1
$
SPC1    1       123     17501   17503   17505   17507
FORCE   1       17511   0       1.0     0.0     0.0     1.0
FORCE   1       17512   0       1.0     0.0     0.0     1.0
DAREA   12      17511   3       1.0     17512   3       1.0
$
$+++++++++++++++++++++++++++++++++++++++++++++++++++++++++++++++++++++++++++++++
$
$       GMINTS  (p-element)             ELEMENT NO. 177
$
$       p-element data
$
CHEXA   17701   17701   17701   17702   17703   17704   17705   17706   +C17701
+C17701 17707   17708
GRID    17701   0       0.0     0.0     0.      0       456
GRID    17702   0       0.0     .08     0.      0       456
GRID    17703   0       0.0     .08     .1      0       456
GRID    17704   0       0.0     0.      .1      0       456
GRID    17705   0       .50     0.      0.      0       456
GRID    17706   0       .50     .08     0.      0       456
GRID    17707   0       .50     .08     .1      0       456
GRID    17708   0       .50     0.      .1      0       456
CHEXA   17702   17701   17711   17712   17713   17714   17715   17716   +C17702
+C17702 17717   17718
GRID    17711   0       .50     0.0     0.      0       456
GRID    17712   0       .50     .08     0.      0       456
GRID    17713   0       .50     .08     .1      0       456
GRID    17714   0       .50     0.      .1      0       456
GRID    17715   0       1.0     0.      0.      0       456
GRID    17716   0       1.0     .08     0.      0       456
GRID    17717   0       1.0     .08     .1      0       456
GRID    17718   0       1.0     0.      .1      0       456
FEFACE  17714   17701   17702   17703   17704
FEFACE  17715   17705   17706   17707   17708
FEFACE  17716   17711   17712   17713   17714
$
GMINTS  17711   17710   17712   17713
PINTS   17710
GMBNDS  17712   17705   17706   17707   17708
        FEFACE  17715
GMBNDS  17713   17711   17712   17713   17714
        FEFACE  17716
$
PSOLID  17701   2       0       2
SPC1    1       123     17701   THRU    17704
FORCE   1       17715   0       .25     0.      0.      -1.
FORCE   1       17716   0       .25     0.      0.      -1.
FORCE   1       17717   0       .25     0.      0.      -1.
FORCE   1       17718   0       .25     0.      0.      -1.
PLOAD4  1       17701   -125.                           17701   17703
$
$
$+++++++++++++++++++++++++++++++++++++++++++++++++++++++++++++++++++++++++++
$
$               CBUSH1D                       ELEMENT NO.  178
$
$
CBUSH1D 17801  	17801  	17801  	17802
GRID    17801  	0       0.0     0.0     0.0
GRID    17802  	0       1.0     0.0     0.0
SPC     1       17802  	23456   0.0
SPC1    1       123456  17801
FORCE1  1       17802  	1.0     17801  	17802
$
CBUSH1D 17807  	17801  	17807  	17808
GRID    17807  	3       2.0     90.0    45.0    3       123456
GRID    17808  	3       3.0     90.0    45.0    3       23456
FORCE   1       17808	3       1.0     1.0     0.0     0.0
PBUSH1D 17801  	10.     .1      20.
$
enddata
