nastran system(107)=2,sparse=25
ID NXN dbxdra7  
$ID NXN, NG6601 
SOL 101  $
TIME 60 $
CEND
 TITLE = FORD ELETRO-MECHANICAL CLUTCH                         dbxdra7
 SUBTITLE = DISPLACEMENT IN MM., FORCE IN NEWTON, STRESS IN MPA
 ECHO = BOTH
 SEALL = ALL
 SET 10=1,21
 SET 20=126,127
 ELSTR = 10
force=10
ese=10
SUBCASE 1
 SPC = 1
 LOAD = 101
BEGIN BULK
PARAM       POST      -1
$
PARAM   LGDISP  1
$
NLPARM  100     5                               40              NO      +NL100
+NL100  1.0E-3  1.0E-3  1.0E-7  
NLPARM  200     5                               40              NO      +NL200
+NL200  1.0E-3  1.0E-3  1.0E-7  
NLPARM  300     1                                                       +NL300
+NL300  1.0E-3  1.0E-3  1.0E-7  
NLPARM  400     5                                                       +NL400
+NL400  1.0E-3  1.0E-3  1.0E-7  
NLPARM  500     5                                                       +NL500
+NL500  1.0E-3  1.0E-3  1.0E-7  
$
$               CYLINDRICAL COORDINATE AT PULLEY CENTER
$
CORD2C  1               0.0     0.0     0.0     0.0     0.0     10.     +CO1
+CO1    5.0     0.0     5.0
$
$               CYLINDRICAL COORDINATE AT -1.MM(X) OFF PULLEY CENTER
$
CORD2C  2               -1.     0.0     0.0     -1.     0.0      10.    +CO2
+CO2    5.0     0.0     5.0
$
$               CYLINDRICAL COORDINATE AT 1.MM(X) OFF PULLEY CENTER
$
CORD2C  3               1.      0.0     0.0     1.      0.0      10.    +CO3
+CO3    5.0     0.0     5.0
$
$               SHOE ON THE RIGHT
$
GRID    1               0.      0.      0.      1
$
GRID,   101,    2,      48.97,  -78.87, 0.,     1
=,      *(1),   =,      =,      *(12.5),==
=(8)
GRID    111     2       48.97   44.189  0.      1
CBEAM,  101,    1,      101,    102,    10.,    45.,    0.,
=,      *(1),   =,      *(1),   *(1),   ==
=(6)
CBEAM   109     2       109     110     10.     45.     0.
CBEAM   110     2       110     111     10.     45.     0.
CBEAM   1001    5       111     112     10.     45.     0.
GRID,   112,    1,      41.6,   45.,    0.,     1
=,      *(1),   =,      =,      *(15.), =,      =
=(2)
CBEAM,  111,    3,      112,    113,    10.,    45.,    0.
=,      *(1),   =,      *(1),   *(1),   ==
=(1)
GRID    116     1       31.     90.     0.      1
GRID    1001    1       41.6    90.     0.      1
GRID    1002    1       31.     90.     0.      1
RBAR    1001    115     1001    123456                  12
RBAR    1002    116     1002    123456                  12
CBEAM   1002    5       1001    116     10.     45.     0.
CBEAM   1003    5       116     221     10.     45.     0.
CBEAM   1004    5       1002    201     10.     45.     0.
$
$               LEVER ON THE RIGHT
$
GRID    121     1       25.     -90.    0.      1
GRID    122     1       25.     -75.2   0.      1
GRID,   123,    1,      25.,    -60.4,  0.,
=,      *(1),   =,      =,      *(14.8),=,      *(1)
=,      *(1),   =,      =,      *(14.8),=,      ==
=(4)
GRID    130     1       25.     43.2    0.
GRID    131     1       25.     58.6382 0.
GRID    1003    1       25.     58.6382 0.      1
RBAR    1003    1003    131     123456                  1
CBEAM,  121,    4,      121,    122,    10.,    45.,    0.
=,      *(1),   =,      *(1),   *(1),   ==
=(8)
$
$               RETURNING SPRING: K = 14. LBF/IN = 2.45 NEWTON/MM
$
CELAS2  11101   2.45    123     1       230     1
$
$               GRIDS DEFINED FOR THE DRUM
$
$GRID,   151,    1,      50.,    -78.87, 0.,     1
GRID,   151,    2,      48.97,  -78.87, 0.,     1
=,      *(1),   =,      =,      *(12.5),=,      ==
=(8)
GRID    161     2       48.97   44.189  0.      1
$
$               GAPS BETWEEN SHOE AND DRUM; .01-.O3IN. = .254-.762MM
$               ASSUMING UNIFORM GAPS
$
$CGAP,   1,      1,      101,    151,     102,
CGAP,   1,      1,      101,    151,    ,       ,       ,       1
=,      *(1),   =,      *(1),   *(1),    ==
=(9)
$
$               SHOE ON THE LEFT
$
GRID,   201,    3,      48.97,  101.13, 0.,     1
=,      *(1),   =,      =,      *(12.5),==
=(8)
GRID    211     3       48.97   224.189 0.      1
CBEAM,  201,    1,      201,    202,    10.,    45.,    0.
=,      *(1),   =,      *(1),   *(1),   ==
=(6)
CBEAM   209     2       209     210     10.     45.     0.
CBEAM   210     2       210     211     10.     45.     0.
CBEAM   2001    5       211     212     10.     45.     0.
GRID,   212,    1,      41.6,   225.,   0.,     1
=,      *(1),   =,      =,      *(15.), ==
=(2)
CBEAM,  211,    3,      212,    213,    10.,    45.,    0.
=,      *(1),   =,      *(1),   *(1),   ==
=(1)
GRID    216     1       31.     270.    0.      1
GRID    2001    1       41.6    270.    0.      1
GRID    2002    1       31.     270.    0.      1
RBAR    2001    215     2001    123456                  12
RBAR    2002    216     2002    123456                  12
CBEAM   2002    5       2001    216     10.     45.     0.
CBEAM   2003    5       216     121     10.     45.     0.
CBEAM   2004    5       2002    101     10.     45.     0.
$
$               LEVER ON THE LEFT
$
GRID    221     1       25.     90.     0.      1
GRID    222     1       25.     104.8   0.      1
GRID,   223,    1,      25.,    119.6,  0.
=,      *(1),   =,      =,      *(14.8),=,      *(1)
=,      *(1),   =,      =,      *(14.8),=,      ==
=(4)
GRID    230     1       25.     223.2   0.
GRID    231     1       25.     238.63820.
GRID    2003    1       25.     238.63820.      1
RBAR    2003    2003    231     123456                  1
CBEAM,  221,    4,      221,    222,    10.,    45.,    0.
=,      *(1),   =,      *(1),   *(1),   ==
=(8)
$
$               RETURNING SPRING: K = 14.LBF/IN = 2.45 NEWTON/MM
$
CELAS2  11102   2.45    223     1       130     1
$
$               GRIDS DEFINED FOR DRUM
$
$GRID,   251,    1,      50.,    101.13, 0.,     1,
GRID,   251,    3,      48.97,  101.13, 0.,     1
=,      *(1),   =,      =,      *(12.5),==
=(8)
GRID    261     3       48.97   224.189 0.      1
$
$               GAPS BETWEEN SHOE AND DRUM; .01-.O3IN. = .254-.762MM
$               ASSUMING UNIFORM GAPS
$
$CGAP,   21,     1,      201,    251,   202,
CGAP,   21,     1,      201,    251,    ,       ,       ,       1
=,      *(1),   =,      *(1),   *(1),   ==
=(9)
PGAP ,   1,      .254,       ,   5.+4,    ,     5.+3,   .1,      .1     +PG1
$+PG1   -1.0
$+PG1   1.-1
$PGAP,   1,      .508,   .508,   1.+6,  1.,     1.+6,   .1,      .1
$PGAP,   1,      .762,   .762,   1.+6,  1.,     1.+6,   .1,      .1
$
PBEAM   1       1       20.     6.67    166.7
PBEAM   2       1       50.     564.    893.    533.
PBEAM   3       1       22.     117.333 13.86
PBEAM   4       1       16.4    87.5    5.74
PBEAM   5       1       20.     166.7   6.67    10.
$
$               MATERIAL PROPERTIES FOR SAE 4140 STEEL
$
MAT1    1       2.06+5          .33
$
$               RIGID LINKS BETWEEN GRID 100 AND PULLEY DRUM
$
GRID    100     1       0.      0.      -10.    1
CELAS2  11103   1.+2    100     6
RBAR,   10001,  100,    151,    123456, ,       ,       126
=,      *(1),   =,      *(1),   ==
=(9)
RBAR,   20001,  100,    251,    123456, ,       ,       126
=,      *(1),   =,      *(1),   ==
=(9)
$
$               RIGID LINK BETWEEN TWO POSTS
$
CBEAM   10001   10000   1003    1       10.     45.     0.
CBEAM   10002   10000   1       2003    10.     45.     0.
$
PBEAM   10000   10000   20.     1000.   1000.           1000.
MAT1    10000   2.+8            .33
$
SPC1    1       345     101     THRU    116
SPC1    1       345     201     THRU    216
SPC1    1       345     121     THRU    131
SPC1    1       345     221     THRU    231
SPC1    1       345     1001    THRU    2002
SPC1    1       345     1003    2003
SPC1    1       12      116     216
SPC1    1       345     151     THRU    161
SPC1    1       345     251     THRU    261
SPC1    1       12345   100
SPC1    1       123456  1
$
SPC1    2       345     101     THRU    116
SPC1    2       345     201     THRU    216
SPC1    2       345     121     THRU    131
SPC1    2       345     221     THRU    231
SPC1    2       345     1001    THRU    2002
SPC1    2       345     1003    2003
SPC1    2       12      116     216
SPC1    2       345     151     THRU    161
SPC1    2       345     251     THRU    261
SPC1    2       12345   100
SPC1    2       12345   1
$
SPC1    3       345     101     THRU    116
SPC1    3       345     201     THRU    216
SPC1    3       345     121     THRU    131
SPC1    3       345     221     THRU    231
SPC1    3       345     1001    THRU    2002
SPC1    3       345     1003    2003
SPC1    3       12      116     216
SPC1    3       345     151     THRU    161
SPC1    3       345     251     THRU    261
SPC1    3       123456  100
SPC1    3       12345   1
$
SPCD    101     1       6       -.7854
MOMENT  101     1       1       -1.+4                   1.
$
MOMENT  201     1       1       -240.                   1.
$
MOMENT  301     1       1       -500.                   1.
$
ENDDATA
