NASTRAN SYSTEM(700)=1
NASTRAN RSEQCONT=0
NASTRAN SYSTEM(370)=1
$
NASTRAN SYSTEM(409)=1
$
ID NXN dbxdra2  
$ID NXN, DBX001
TIME  60  $  TIME IN MINUTES FOR VAX
SOL 107 $
CEND
TITLE=  14 elements supported in Data Recovery Project         dbxdra2
SUBTITLE = MSC/62 VERSION
SPC = 12
$ CARDS FOR GRID POINT STRESS CALCULATIONS
SUBCASE 1
SUBTITLE = STATIC LOAD
DISP = ALL
STRESS = ALL
SPCFOR = ALL
FORCE = ALL
STRAIN=ALL
LOAD = 1
cmethod = 2
BEGIN BULK
EIGC	2	hess					3 	
$               C O M M O N   D A T A   T O   A L L   P R O B L E M S
PARAM,BAILOUT,-1 $ CONTINUE IF BADLY CONDITIONED
PARAM,NEWSEQ,-1  $ S_PATEL 7-MAY-1992
PARAM,MPCX,0
PARAM,SUPER,0
$PARAM,POST,0 $PARAMETER TO ALLOW MSC/GRASP POST-PROCESSING
$PARAM,DBCCONV,XL
PARAM       POST      -2
PARAM,G,.02
CORD2C  1       0       3.0     -1.0    0.0     9.0     -1.0    0.0     +CORD2C
+CORD2C 9.0     0.0     -1.0
$
CORD2R  2       0       0.0     -2.0    0.0     1.011234-2.0    0.0     +CORD2R
+CORD2R 0.0     0.0     0.0
$
CORD2S  3       1       3.0     225.0   0.0     3.0     225.0   1.234567+CORD2S
+CORD2S 3.0     -45.0   3.0
$
GRAV    3               1.0     1.0     1.0     1.0
TEMPD   1       100.0
TEMPD   2       200.0
$
MAT1    2       1.      .8      .1      .05     .001    100.    .01     +MAT11
+MAT11  2.0     3.0     4.0
MATT1   1       2                               3                       +MATT1
+MATT1  4       5       6
MAT1    1       1.0E+2          0.15    .05     .001    100.0   .01     +MAT1-2
+MAT1-2 1000.   2000.   3000.
MATT1   2                                       3                       +MATT1-2
+MATT1-2 2      2
MAT4    1       1.23    4.56
MAT4    2       3.45    6.78
MATT4   1       3
MATT4   2       5
MAT8    3       1.E+7   1.E+7   .25     4.E+6   4.E+6   4.E+6   1.0     +MAT81
+MAT81  1.-6    2.-6            1.E-4           1.E-3           1.E-4   +MAT82
+MAT82                  1.0
$
TABLEM1 2                                                               +TABLE-2
+TABLE-2 0.0    1.0     150.0   1.0     150.    0.5     300.    0.5     +TABL-2
+TABL-2 ENDT    ENDT
TABLEM2 3       100.0                                                   +TABLE-3
+TABLE-3 0.0    0.1     50.0    0.1     50.0    0.5     150.0   0.5     +TABL-3
+TABL-3 200.0   10.0            ENDT
TABLEM3 4       100.0   2.0                                             +TABLE-4
+TABLE-4 0.0    0.1     25.0    .1      25.0    2.0     75.0    2.0     +TABL-4
+TABL-4 300.0   .00001  ENDT
TABLEM4 5       100.0   100.    2.0     10.00                           +TABLE-5
+TABLE-5                                2.0     ENDT
TABLEM4 6       0.0     100.    0.0     100.00                          +TABLE-6
+TABLE-6 1.0            .25     ENDT
$
PARAM   GRDPNT  0
PARAM   NT      1
PARAM   TINY    0.
PARAM   IRES    1
PARAM   COUPMASS1
PARAM,  AUTOSPC,YES
PARAM,  COMPARE,1 $ PROCESS SELECTED S.E., THEN ENTIRE MODEL, DMAP0
PARAM,  PNCHDB, 1 $ PUNCH FROM DATA BASE, DMAP0
PARAM,  GPECT,  1 $ GRID-ELEMENT CONNECTIVITY.  MG 21 OCT 80
PARAM,  NOELOP, 1 $ SUM OF FORCES.  MG 21 OCT 1980
PARAM,  NOGPF,  -1 $ SUPPRESS GPFO OUTPUT.  LOOK AT ELOP INSTEAD.  MG
$
$ SPCS TO BE SELECTED FOR RF 1 THRU 12
$SPCADD  12      1       2
SPCADD  12      1       
$ SPCS TO BE SELECTED FOR RF 51,53 AND 59
SPCADD  13      1       3
$
FREQ1   10      0.0     1.0     1
RLOAD2  11      12                      14
TABLED1 14                                                              +TABD4.1
+TABD4.1-1.0    1.0001  2.0     1.0001  ENDT
$
$ ++++++++++++++++++++++++++++++++++++++++++++++++++++++++++++++++++++++++++++++
$
$               ROD                         ELEMENT NO.  1
$
CROD    101     101     101     102
GRID    101     0       0.0     0.0     0.0
GRID    102     0       1.0     0.0     0.0
SPC1    1       123456  101
SPC1    1       2356    102
FORCE1  1       102     1.0     101     102
MOMENT1   1     102     1.0     101     102
DAREA   12      102     1       1.0     102     4       1.0
$
CROD    107     101     107     108
GRID    107     3       2.23606863.4349545.0    3       123456
GRID    108     3       2.0     90.0    45.0    3       1346
FORCE1  1       108     1.0     107     108
MOMENT1 1       108     1.0     107     108
DAREA   12      108     3       1.0     108     6       1.0
PROD    101     1       1.0     2.0     0.1     0.5
$
$+++++++++++++++++++++++++++++++++++++++++++++++++++++++++++++++++++++++++++++++
$
$               BEAM                        ELEMENT NO.  2
$
CBEAM   200     200     201     202     0.      0.      1.
GRID    201     0       0.0     0.0     0.0
GRID    202     0       1.0     0.0     0.0
SPC1    1       23456   202
SPC1    1       123456  201
FORCE   1       202     0       1000.0  1.0     0.0     0.0
PBEAM   200     1       100.    1.      1.                              +PBEAM1
+PBEAM1 2.0     1.0                                                     +PBEAM2
+PBEAM2 YESA    1.0
DAREA   12      202     1       1.0
$
$+++++++++++++++++++++++++++++++++++++++++++++++++++++++++++++++++++++++++++++++
$
$               TUBE                        ELEMENT NO.  3
$
CTUBE   301     301     301     302
GRID    301     0       0.0     0.0     0.0
GRID    302     0       1.0     0.0     0.0
SPC1    1       123456  301
SPC1    1       2356    302
FORCE1  1       302     .282265 301     302
MOMENT1 1       302     .282265 301     302
DAREA   12      302     1       1.0     302     4       1.0
$
CTUBE   307     301     307     308
GRID    307     3       2.23606863.4349545.0    3       123456
GRID    308     3       2.0     90.0    45.0    3       1346
FORCE1  1       308     .282265 307     308
MOMENT1 1       308     .282265 307     308
DAREA   12      308     2       -1.0    308     5       -1.0
PTUBE   301     2       1.0     0.1     2.0
$
$+++++++++++++++++++++++++++++++++++++++++++++++++++++++++++++++++++++++++++++++
$
$               CONROD                      ELEMENT NO. 10
$
CONROD  1001    1001    1002    1       1.0     1.0     1.0     0.5
GRID    1001    0       0.0     0.0     0.0
GRID    1002    0       1.0     0.0     0.0
SPC1    1       123456  1001
SPC1    1       2356    1002
FORCE1  1       1002    1.0     1001    1002
MOMENT1 1       1002    1.0     1001    1002
DAREA   12      1002    1       1.0     1002    4       1.0
$
CONROD  1007    1007    1008    1       1.0     1.0     1.0     0.5
GRID    1007    3       2.23636863.4349545.0    3       123456
GRID    1008    3       2.0     90.0    45.0    3       1346
FORCE1  1       1008     1.0    1007    1008
MOMENT1 1       1008     1.0    1007    1008
DAREA   12      1008    2        1.0    1008    5        1.0
$
$+++++++++++++++++++++++++++++++++++++++++++++++++++++++++++++++++++++++++++++++
$
$               QUAD4                   ELEMENT NO. 33
$
CQUAD4  3301    3301    3301    3302    3303    3304    0.
GRID    3301    0       0.0     0.0     0.0
GRID    3302    0       1.0     0.0     0.0
GRID    3303    0       1.0     1.0     0.0
GRID    3304    0       0.0     1.0     0.0
SPC1    1       1256    3302    3303
SPC1    1       123456  3301    3304
FORCE   1       3302    0       1.0     0.0     0.0     1.0
FORCE   1       3303    0       1.0     0.0     0.0     1.0
DAREA   12      3302    3       1.0     3303    3       1.0
PSHELL  3301    2       1.0     2               1       1.0     0.5     +QUAD41
+QUAD41 0.2     -0.3
$
CQUAD4  3313    3313    3313    3314    3315    3316    382.5           +QUAD42
+QUAD42                 .63     .67             .53
GRID    3313    3       3.0     90.     0.      3       123456
GRID    3314    3       3.0     90.     60.     2       123456
GRID    3315    3       3.0     40.     60.     1       4
GRID    3316    3       3.0     30.     0.      0       5
FORCE   1       3315    2       3.14159 0.      2.71828 0.
DAREA   12      3315    3       1.73205
PSHELL  3313    1       3.0	1               1               .30103  +QUAD43
+QUAD43 0.
$
$ COMPOSITE TESTING , WITH STRAIN THEORY, ADDED 17JUN87, LNA
CQUAD4  3321    3321    3321    3322    3323    3324    0.
GRID    3321    0       0.0     0.0     0.0             13456
GRID    3322    0       10.0    0.0                     6
GRID    3323    0       10.0    10.0    0.0             6
GRID    3324    0       0.0     10.0    0.0             123456
FORCE   1       3322    0       1.+3    1.0     0.0     1.0
FORCE   1       3323    0       1.+3    1.0     0.0     1.0
DAREA   12      3322    3       1.0     3323    3       1.0
PCOMP   3321                    1.      STRN                            +QUAD4C
+QUAD4C 3       0.5     0.      YES     3       0.5     0.      YES
$
$+++++++++++++++++++++++++++++++++++++++++++++++++++++++++++++++++++++++++++++++
$
$               BAR                         ELEMENT NO. 34
$
CBAR    3401    3401    3401    3402    0.0     0.0     1.0             +CBAR1
+CBAR1  0       0       1.0     1.0     1.0     1.0     1.0     1.0
GRID    3401    0       0.0     0.0     0.0
GRID    3402    0       1.0     0.0     0.0
SPC1    1       23456   3402
SPC1    1       123456  3401
FORCE1  1       3402    1.0     3401    3402
PLOAD1  1       3401    FX      LE      1.      1.
DAREA   12      3402    1       1.0
PBAR    3401    1       1.0     10.0    20.0    5.0     0.5             +PBAR1
+PBAR1  0.1     0.1     0.1     0.1     0.1     0.1     0.1     0.1     +PBAR2
+PBAR2  0.8     0.8     9.5
$
CBAR    3403    3403    3403    3404    3405                    2       +CBAR3
+CBAR3  0       0       1.0     1.0     1.0     -1.0    -1.0    -1.0
GRID    3403    0       0.0     0.0     0.0
GRID    3404    0       0.0     1.0     0.0
GRID    3405    0       1.0     0.0     0.0     0       123456
SPC1    1       2       3404
SPC1    1       123456  3403
FORCE   1       3404    0       1.0     1.0     0.0     1.0
MOMENT2 1       3404    1.0     3403    3404    3403    3405
DAREA   12      3404    1       1.0     3404    3       1.0
DAREA   12      3404    6       -1.0
$
CBAR    3410    3403    3410    3411    -1.0    0.0     0.0     1       +CBAR10
+CBAR10 0       0       1.0     1.414214-1.0    0.0     1.0     0.0
GRID    3410    3       1.0     90.0    45.0    3       123456
GRID    3411    3       1.41421445.0    45.0    3
FORCE   1       3411    3       1.0     0.0     1.414214 1.0
DAREA   12      3411    2       1.414214 3411   3       1.0
PBAR    3403    1       1.0     10.0    20.0    5.0     0.5             +PBAR3
+PBAR3  0.1     0.1     -0.1    -0.1    0.2     0.2     -0.2    -0.2    +PBAR4
+PBAR4  100.0   200.0   12.0
$
$+++++++++++++++++++++++++++++++++++++++++++++++++++++++++++++++++++++++++++++++
$
$               TETRA                       ELEMENT NO. 39
$
CTETRA  3901    3901    3901    3902    3903    3904
GRID    3901    0       0.0     0.0     0.0     0       456
GRID    3902    0       2.0     0.0     0.0     0       456
GRID    3903    0       1.0     1.7320510.0     0       1456            6/20/72
GRID    3904    0       1.0     .5773503+1.0    0       456
PSOLID  3901    1
SPC1    1       3       3901    3902    3903
SPC1    1       12      3904
FORCE   1       3904    0       1.0     0.0     0.0     1.0
DAREA   12      3904    3       1.0
$
$+++++++++++++++++++++++++++++++++++++++++++++++++++++++++++++++++++++++++++++++
$
$               HEXA                    ELEMENT NO.67
$
$
CHEXA   6701    6701    6701    6702    6703    6704    6705    6706    +C6701
+C6701  6707    6708
GRID    6701    0       0.0     0.0     0.      0       456
GRID    6702    0       0.0     .08     0.      0       456
GRID    6703    0       0.0     .08     .1      0       456
GRID    6704    0       0.0     0.      .1      0       456
GRID    6705    0       1.0     0.      0.      0       456
GRID    6706    0       1.0     .08     0.      0       456
GRID    6707    0       1.0     .08     .1      0       456
GRID    6708    0       1.0     0.      .1      0       456
PSOLID  6701    1       0       2
SPC1    1       123     6701    THRU    6704
FORCE   1       6705    0       .25     0.      0.      -1.
FORCE   1       6706    0       .25     0.      0.      -1.
FORCE   1       6707    0       .25     0.      0.      -1.
FORCE   1       6708    0       .25     0.      0.      -1.
PLOAD4  1       6701    -125.                           6701    6703
$
$+++++++++++++++++++++++++++++++++++++++++++++++++++++++++++++++++++++++++++++++
$
$               PENTA                   ELEMENT NO. 68
$
CPENTA  6801    6801    6801    6802    6803    6804    6805    6806
GRID    6801            .1      .1      -1.             456
GRID    6802            .1      -.1     -1.             456
GRID    6803            -.1     0.      -1.             456
GRID    6804            .1      .1      1.              456
GRID    6805            .1      -.1     1.              456
GRID    6806            -.1     0.      1.              456
SPC1    1       123     6801    6802    6803
FORCE   1       6804    0       .3333   0.      0.      1.
FORCE   1       6805    0       .3333   0.      0.      1.
FORCE   1       6806    0       .3333   0.      0.      1.
PSOLID  6801    1       0       2 
PLOAD4  1       6801    110.                            6801    6805
DAREA   12      6804    1       1.0
$
$+++++++++++++++++++++++++++++++++++++++++++++++++++++++++++++++++++++++++++++++
$
$               TRIA3                   ELEMENT NO. 74
$
CTRIA3  7451    7451    7451    7452    7453    0.0
GRID    7451    0       0.0     0.0     0.0
GRID    7452    0       1.0     0.0     0.0
GRID    7453    0       0.5     1.0     0.0
SPC1    1       6       7453
SPC1    1       123456  7451    7452
FORCE2  1       7453    1.0     7451    7452    7452    7453
DAREA   12      7453    3       1.0
$
CTRIA3  7460    7451    7460    7461    7462    0.0
GRID    7460    3       1.0     90.     45.     3       123456
GRID    7461    3       1.41421445.     45.     3       123456
GRID    7462    3       2.06155375.9637645.     3       6
FORCE2  1       7462    1.0     7460    7461    7460    7462
DAREA   12      7462    3       1.0
PSHELL  7451    2       .1      2               1       1.0
$
$
$+++++++++++++++++++++++++++++++++++++++++++++++++++++++++++++++++++++++++++++++
$
$               SHEAR                       ELEMENT NO.  4
$
CSHEAR  401     401     401     402     403     404
GRID    401     0       0.0     0.0     0.0
GRID    402     0       1.0     0.0     0.0
GRID    403     0       1.0     1.0     0.0
GRID    404     0       0.0     1.0     0.0
$ ELEMENT STABILIZED WITH SPCS RATHER THAN CELAS ELS. MSC/61 MG 27OCT80
$CELAS2  402     1.0-5   402     2       0       0
$CELAS2  403     1.0-5   403     2       0       0
SPC1    1       123456  401     404
SPC1    1       13456   402     403
FORCE   1       402     0       1.0     0.0     1.0     0.0
FORCE   1       403     0       1.0     0.0     1.0     0.0
DAREA   12      402     2       1.0     403     2       1.0
$
CSHEAR  413     401     413     414     415     416
GRID    413     3       1.00     90.0   45.0    3       23456
GRID    414     3       1.414214 45.0   45.0    3       123456
GRID    415     3       2.23606863.4349545.0    3       654321
GRID    416     3       2.00     90.0   45.0    3       65432
$CELAS2  414     1.0-4   413     1       416     1
FORCE1  1       413     1.0     413     416
FORCE1  1       416     1.0     413     416
DAREA   12      413     1       1.0     416     4       1.0
PSHEAR, 401,    1,      1.0,    0.5, 1.,30.$ F1,F2 ADDED MSC/61 MG JUL80
$+++++++++++++++++++++++++++++++++++++++++++++++++++++++++++++++++++++++++++++++
$
$               DUM1                        ELEMENT NO. 53
$
$ADUM1,6,3,0,3,CTRIAX6 $
CTRIAX6 5301    1       5301    5302    5303    5304    5305    5306    +TRIAX61
+TRIAX6130.0
GRID    5301    0       6.0     0.0     0.0     0       2456
GRID    5302    0       6.0     0.0     2.0     0       2456
GRID    5303    0       6.0     0.0     4.0     0       2456
GRID    5304    0       4.238   0.0     3.0     0       2456
GRID    5305    0       2.536   0.0     2.0     0       2456
GRID    5306    0       4.238   0.0     1.0     0       2456
SPC1    1       3       5302
PLOADX  1       .0222139.03332095301    5302    5303
CTRIAX6 5311    1       5311    5312    5313    5314    5315            +TRIAX62
+TRIAX6230.0
GRID    5311    0       6.0     0.0     0.0     0       2456
GRID    5312    0       6.0     0.0     2.0     0       2456
GRID    5313    0       6.0     0.0     4.0     0       2456
GRID    5314    0       3.402   0.0     3.0     0       2456
GRID    5315    0       2.536   0.0     2.0     0       2456
$GRID   5316    0       4.238   0.0     1.0     0       2456
SPC1    1       3       5312
PLOADX1 1       5311    .0222139.03332095311    5313
$+++++++++++++++++++++++++++++++++++++++++++++++++++++++++++++++++++++++++++++++
$
$               QUAD8                      ELEMENT NO. 64
$
CQUAD8  6401    6401    6401    6402    6403    6404    6405    6406    +Q81
+Q81    6407    6408
GRID    6401    0       0.0     0.0     0.0
GRID    6402    0       1.0     0.0     0.0
GRID    6403    0       1.0     1.0     0.0
GRID    6404    0       0.0     1.0     0.0
GRID    6405    0       0.5     0.0     0.0
GRID    6406    0       1.0     0.5     0.0
GRID    6407    0       0.5     1.0     0.0
GRID    6408    0       0.0     0.5     0.0
SPC1    1       1256    6402    6403
SPC1    1       123456  6401    6408    6404
SPC1    1       6       6405    6406    6407
FORCE   1       6402    0       1.0     0.0     0.0     1.0
FORCE   1       6406    0       1.0     0.0     0.0     1.0
FORCE   1       6403    0       1.0     0.0     0.0     1.0
DAREA   12      6402    3       1.0     6403    3       1.0
PSHELL  6401    1       1.0     1       120.    1       1.0     0.5     +QUAD81
+QUAD81 0.2     -0.3
$
CQUAD8  6413    6413    6413    6414    6415    6416    6417    6418    +Q82
+Q82    6419    6420    .63     .67             .53     382.5
GRID    6413    3       3.0     90.     0.      3       123456
GRID    6414    3       3.0     90.     60.     2       123456
GRID    6415    3       3.0     40.     60.     1       4
GRID    6416    3       3.0     30.     0.      0       5
GRID    6417    3       3.0     90.     30.     3       123456
$ X2 CHANGED FROM 75. TO 30. FOR MSC/61.  MG 21 OCT 80
GRID    6418    3       3.0     65.     60.     1       4
GRID    6419    3       3.0     35.     30.     0       5
GRID    6420    3       3.0     60.     0.      0       5
FORCE   1       6415    2       3.14159 0.      2.71828 0.
DAREA   12      6415    3       1.73205
PSHELL  6413    1       .618034 2               1                       +QUAD83
+QUAD83 0.
$
$+++++++++++++++++++++++++++++++++++++++++++++++++++++++++++++++++++++++++++++++
$
$         TRIA6                     ELEMENT NO. 75
$
CTRIA6  7501    7501    7501    7502    7503    7504    7505    7506
GRID    7501    0       0.0     0.0     0.0
GRID    7502    0       1.0     0.0     0.0
GRID    7503    0       0.0     1.0     0.0
GRID    7504    0       0.5     0.0     0.0
GRID    7505    0       0.5     0.5     0.0
GRID    7506    0       0.0     0.5     0.0
SPC1    1       123456  7501    7506    7503
SPC1    1       1246    7502
SPC1    1       6       7505    7504
FORCE   1       7502    0       1.0     0.      0.0     1.0
DAREA   12      7502    3       1.0
PSHELL  7501    1       .1      1       10.+2   1       1.0
$
$+++++++++++++++++++++++++++++++++++++++++++++++++++++++++++++++++++++++++++++++
$
$               QUADR                   ELEMENT NO. 99
$
CQUADR  9901    9901    9901    9902    9903    9904    0.
GRID    9901    0       0.0     0.0     0.0
GRID    9902    0       1.0     0.0     0.0
GRID    9903    0       1.0     1.0     0.0
GRID    9904    0       0.0     1.0     0.0
SPC1    1       125     9902    9903
SPC1    1       12345   9901    9904
FORCE   1       9902    0       1.0     0.0     0.0     1.0
FORCE   1       9903    0       1.0     0.0     0.0     1.0
DAREA   12      9902    3       1.0     9903    3       1.0
PSHELL  9901    1       1.0     1       120.0   1       1.0     0.5     +QUADR1
+QUADR1 0.2     -0.3
$
CQUADR  9913    9913    9913    9914    9915    9916    382.5           +QUADR2
+QUADR2                 .63     .67             .53
GRID    9913    3       3.0     90.     0.      3       123456
GRID    9914    3       3.0     90.     60.     2       123456
GRID    9915    3       3.0     40.     60.     1       4
GRID    9916    3       3.0     30.     0.      0       5
FORCE   1       9915    2       3.14159 0.      2.71828 0.
DAREA   12      9915    3       1.73205
PSHELL  9913    1       .618034 2               1               .30103  +QUADR3
+QUADR3 0.
$
$+++++++++++++++++++++++++++++++++++++++++++++++++++++++++++++++++++++++++++++++
$
$               TRIAR                   ELEMENT NO. 70
$
CTRIAR  7051    7051    7051    7052    7053    0.0
GRID    7051    0       0.0     0.0     0.0
GRID    7052    0       1.0     0.0     0.0
GRID    7053    0       0.5     1.0     0.0
SPC1    1       6       7053
SPC1    1       12345   7051    7052
FORCE2  1       7053    1.0     7051    7052    7052    7053
DAREA   12      7053    3       1.0
$
CTRIAR  7060    7051    7060    7061    7062    0.0
GRID    7060    3       1.0     90.     45.     3       12345
GRID    7061    3       1.41421445.     45.     3       12345
GRID    7062    3       2.06155375.9637645.     3       6
FORCE2  1       7062    1.0     7060    7061    7060    7062
DAREA   12      7062    3       1.0
PSHELL  7051    1       .1      1       10.+2   1       1.0
$
CTRIAR  7070    7071    7070    7071    7072    0.0
GRID    7070    3       1.0     90.     45.     3       12345
GRID    7071    3       1.41421445.     45.     3       12345
GRID    7072    3       2.06155375.9637645.     3       6
FORCE2  1       7072    1.0     7070    7071    7070    7072
DAREA   12      7072    3       1.0
PCOMP   7071                    1.      STRN                            +TRIARC
+TRIARC 3       0.5     0.      YES     3       0.5     0.      YES
$
$+++++++++++++++++++++++++++++++++++++++++++++++++++++++++++++++++++++++++++++++
$
$               ELAS1                       ELEMENT NO. 11
$
CELAS1  1101    1101    1101    0       1102    0
SPOINT  1101    1102
SPC1    1       0       1101
SLOAD   1       1102    1.0
DAREA   12      1102    0       1.0
PELAS   1101    1.0     0.5     0.1
$
$+++++++++++++++++++++++++++++++++++++++++++++++++++++++++++++++++++++++++++++++
$
$               ELAS2                       ELEMENT NO. 12
$
CELAS2  1201    1.0     1201    0       1202    0       0.5     1.0
SPOINT  1201    1202
SPC1    1       0       1201
SLOAD   1       1202    1.0
DAREA   12      1202    0       1.0
$
$+++++++++++++++++++++++++++++++++++++++++++++++++++++++++++++++++++++++++++++++
$
$               ELAS3                       ELEMENT NO. 13
$
CELAS3  1301    1301    0       1302
SLOAD   1       1302    1.0
DAREA   12      1302    0       1.0
PELAS   1301    1.0     0.5     0.1
$
$+++++++++++++++++++++++++++++++++++++++++++++++++++++++++++++++++++++++++++++++
$
$               ELAS4                       ELEMENT NO. 14
$
CELAS4  1401    1.0     0       1402
SLOAD   1       1402    1.0
DAREA   12      1402    0       1.0
$
$+++++++++++++++++++++++++++++++++++++++++++++++++++++++++++++++++++++++++++++++
$
$               RBAR                    ELEMENT NO. 101
$
RBAR    10101   10101   10102   234     123
GRID    10101   2       1.0     2.0     3.0     2       234
GRID    10102   2       4.0     6.0     15.0    2       123
FORCE   1       10101   2       1.0     1.0
$
$+++++++++++++++++++++++++++++++++++++++++++++++++++++++++++++++++++++++++++++++
$
$               RBE1                    ELEMENT NO. 102
$
RBE1    10201   10201   234     10202   123                             +R10201
+R10201 UM      10201   156     10202   456
GRID    10201           1.0     2.0     3.0             234
GRID    10202           4.0     6.0     15.0            123
FORCE   1       10201           1.0     1.0
$
$+++++++++++++++++++++++++++++++++++++++++++++++++++++++++++++++++++++++++++++++
$
$               RBE2                    ELEMENT NO. 103
$
RBE2    10301   10301   123456  10302
FORCE   1       10302           1.0     1.0
GRID    10302           4.0     6.0     15.0            0
GRID    10301           1.0     2.0     3.0             213456
$
$+++++++++++++++++++++++++++++++++++++++++++++++++++++++++++++++++++++++++++++++
$
$               RROD                    ELEMENT NO. 104
$
RROD    10401   10401   10402   1
GRID    10401           0.0     0.0     0.0             23456
GRID    10402           1.0     0.0     0.0             123456
FORCE   1       10401           1.0     1.0
$
$+++++++++++++++++++++++++++++++++++++++++++++++++++++++++++++++++++++++++++++++
$
$       RBE3  ELEMENT  NO.  106
$
RBE3    10601           10605   123456  2.      123     10601           +R10601A
+R10601A2.      12      10602                                           +R10601B
+R10601B1.      12      10603                                           +R10601C
+R10601C1.      1       10604   2.      2       10604                   +R10601D
+R10601D1.      3       10602   10603   10604
GRID    10601           0.      0.      -3.
GRID    10602           0.      4.      0.
GRID    10603           0.      0.      3.
GRID    10604           0.      -4.     0.
GRID    10605           0.      0.      0.
FORCE   1       10605           1.0     1.0
MOMENT  1       10605           1.0     1.0
SPC1    1       123456  10601   10602   10603   10604
SPC1    3       123456  10605
$
RBE3    10611           10614   123     .001    123     10611   10612   +R10611A
+R10611A10613                                                           +R10611B
+R10611BUM      10611   123
GRID    10611   2       0.      0.      -3.     2
GRID    10612   2       0.      2.59808 1.5     2
GRID    10613   2       0.      -2.598081.5     2
GRID    10614   2       0.      0.      0.      2
FORCE   1       10611   2       1.      1.
SPC1    1       123456  10612   10613   10614
SPC1    1       456     10611
SPC1    3       123     10611
$
ENDDATA
