ID MSC, DOFM12  $SSP 11-AUG-92 V68
SOL 200
TIME 10
CEND
TITLE = DYNAMIC OPTIMIZATION                                   DOFM12
SUBTITLE = FREQUENCY RESPONSE
LABEL = TRIA6
SUBCASE 1
DESOBJ = 1
DESSUB = 1
SET 5=1,2,3,8,9,10,15,16,17,22,23,24
SET 2 = 5,9,65,69
SET 1 = 1,33
SET 4 = 3,4,6,7,23,26,27,28
STRESS = 5
FORCE = 4
SPC   = 1
VELO  = 1
DISP  = 1
ESE = 1,2
FREQ = 1
DLOAD = 2
METHOD = 1
ANALYSIS = MFREQ
SUBCASE 2
DESSUB = 2
SET 5 = 16,17,22,23,24,28
SET 2 = 5,9,65,69
SET 1 = 1,33
SET 4 = 3,4,6,7,23,25,26,27,28
STRESS = 5
FORCE = 4
SPC = 1
DISP = 1
VELO = 1
ESE = 1,2
LOAD = 3
ANALYSIS = STATICS
BEGIN BULK
CTRIA6  1       1       1       3       18      2       10      17
CTRIA6  2       1       3       5       18      4       11      10
CTRIA6  3       1       5       20      18      12      19      11
CTRIA6  4       11      5       22      20      13      21      12
CTRIA6  5       12      5       7       22      6       14      13
CTRIA6  6       13      7       9       22      8       15      14
CTRIA6  7       14      9       24      22      16      23      15
CTRIA6  8       1       1       18      33      17      25      32
CTRIA6  9       27      18      35      33      26      34      25
CTRIA6  10      1       18      20      35      19      27      26
CTRIA6  11      15      20      22      35      21      28      27
CTRIA6  12      16      22      37      35      29      36      28
CTRIA6  13      17      22      39      37      30      38      29
CTRIA6  14      18      22      24      39      23      31      30
CTRIA6  15      1       1       33      48      32      40      47
CTRIA6  16      1       33      35      48      34      41      40
CTRIA6  17      1       35      50      48      42      49      41
CTRIA6  18      19      35      52      50      43      51      42
CTRIA6  19      20      35      37      52      36      44      43
CTRIA6  20      21      37      39      52      38      45      44
$ ... 8 like lines cut
DAREA   10      1       3       20.
DCONSTR 1       2       -2100.  2000.
DCONSTR 1       3       -2000.  2000.
DCONSTR 1       4       -2000.  2000.
DCONSTR 1       5       -2000.  2000.
DCONSTR 1       6       0.0     10.0
DCONSTR 2       9       0.0     2.2
DEQATN  1       F(D1,D2)= D2/D1
DESVAR  1       DV1     235.5   100.0   500.0
DESVAR  2       DV2     235.5   100.0   500.0
DESVAR  3       DV3     235.5   100.0   500.0
DESVAR  4       DV4     235.5   100.0   500.0
DESVAR  5       DV5     235.5   100.0   500.0
DESVAR  6       DV6     235.5   100.0   500.0
DESVAR  7       DV7     235.5   100.0   500.0
DESVAR  8       DV8     235.5   100.0   500.0
DESVAR  9       DV9     235.5   100.0   500.0
DESVAR  10      DV10    235.5   100.0   500.0
DESVAR  11      DV11    235.5   100.0   500.0
DESVAR  12      DV12    235.5   100.0   500.0
DESVAR  13      DV13    235.5   100.0   500.0
DESVAR  14      DV14    235.5   100.0   500.0
DESVAR  15      DV15    235.5   100.0   500.0
DESVAR  16      DV16    235.5   100.0   500.0
DLOAD   2       1.0     5.0     1
DRESP1  1       S1      FRSTRE  PSHELL          11              26
DRESP1  2       F1      FRFORC  PSHELL          7               23
DRESP1  3       F2      FRFORC  PSHELL          17              14
DRESP1  4       F3      FRFORC  PSHELL          8               11
DRESP1  5       F4      FRFORC  PSHELL          36              26
DRESP1  6       V1      FRVELO                  3               1
DRESP1  7       D1      DISP                    3               33
DRESP1  8       D2      DISP                    3               1
DRESP1  10      STRN5   STRAIN  PSHELL          5               27
DRESP2  9       D2/D1   1
        DRESP1  7       8
DVPREL1 1       PSHELL  11      6       100.0
        1       1.0
DVPREL1 2       PSHELL  12      6       100.0
        2       1.0
DVPREL1 3       PSHELL  13      6       100.0
        3       1.0
DVPREL1 4       PSHELL  14      6       100.0
        4       1.0
DVPREL1 5       PSHELL  15      6       100.0
        5       1.0
DVPREL1 6       PSHELL  16      6       100.0
        6       1.0
DVPREL1 7       PSHELL  17      6       100.0
        7       1.0
DVPREL1 8       PSHELL  18      6       100.0
        8       1.0
DVPREL1 9       PSHELL  19      6       100.0
        9       1.0
DVPREL1 10      PSHELL  20      6       100.0
        10      1.0
DVPREL1 11      PSHELL  21      6       100.0
        11      1.0
DVPREL1 12      PSHELL  22      6       100.0
        12      1.0
DVPREL1 13      PSHELL  23      6       100.0
        13      1.0
DVPREL1 14      PSHELL  24      6       100.0
        14      1.0
DVPREL1 15      PSHELL  25      6       100.0
        15      1.0
DVPREL1 16      PSHELL  26      6       100.0
        16      1.0
EIGRL   1               200.0
FORCE   3       1               3000.0  0.0     0.0     1.0
FREQ    1       120.1516
GRID    1               2.      2.      0.0
GRID    2               1.5     2.      0.0
GRID    3               1.      2.      0.0
GRID    4               .5      2.      0.0
GRID    5               0.0     2.      0.0
GRID    6               -.5     2.      0.0
GRID    7               -1.     2.      0.0
GRID    8               -1.5    2.      0.0
GRID    9               -2.     2.      0.0
GRID    10              1.125   1.875   0.0
GRID    11              .6875   1.8125  0.0
GRID    12              .25     1.75    0.0
GRID    13              -.1875  1.6875  0.0
GRID    14              -.625   1.625   0.0
GRID    15              -1.0625 1.5625  0.0
GRID    16              -1.5    1.5     0.0
GRID    17              1.625   1.875   0.0
GRID    18              1.25    1.75    0.0
GRID    19              .875    1.625   0.0
GRID    20              .5      1.5     0.0
$ ... 49 like lines cut
MAT1    2       10.E+6          0.4     10.2
        1000.   10.0    1000.
PARAM   AUTOSPC YES
PSHELL  1       2       .2      2       235.5
PSHELL  11      2       .2      2       235.5
PSHELL  12      2       .2      2       235.5
PSHELL  13      2       .2      2       235.5
PSHELL  14      2       .2      2       235.5
PSHELL  15      2       .2      2       235.5
PSHELL  16      2       .2      2       235.5
PSHELL  17      2       .2      2       235.5
PSHELL  18      2       .2      2       235.5
PSHELL  19      2       .2      2       235.5
PSHELL  20      2       .2      2       235.5
PSHELL  21      2       .2      2       235.5
PSHELL  22      2       .2      2       235.5
PSHELL  23      2       .2      2       235.5
PSHELL  24      2       .2      2       235.5
PSHELL  25      2       .2      2       235.5
PSHELL  26      2       .2      2       235.5
PSHELL  27      2       .2      2       235.5
RLOAD1  1       10                      100
SPC     1       5       1234    0.0
SPC     1       9       12345   0.0
SPC     1       65      1235    0.0
SPC     1       69      12345   0.0
SPC1    1       6       1       THRU    69
TABLED1 100
        0.0     0.0     1.-3    50.     .5      100.    1.      1000.
        100.0   1500.   200.    3000.   ENDT
PARAM,POST,-1
ENDDATA
