NASTRAN SYSTEM(700)=1
ID EDS, EHBUS68  $ 
$ 
$ID EHBUS,V67.5 $ 
SOL 106 $
DIAG 8 $
TIME 30
CEND
$ ELEMENT OMNIBUS PROBLEM TO TEST THE HYPERELASTIC ELEMENTS
$ english units
TITLE = HYPERELASTIC ELEMENT OMNIBUS                           EHBUS68
SUBTITLE = plane strain and axisymmetric finite deformation elements
LABEL = mixed with linear, superelements, and other material nonlinear elements
ECHO=UNSORT
$ request all output
        DISP=ALL
        OLOAD=ALL
        SPCF=ALL
        STRESS=ALL
$ force available for plane strain elements only
        FORCE=ALL
$ strain only available for linear elements
        STRAIN=ALL
$ gpstress not supported by hyperelastic elements
        GPSTRESS=ALL
$ gpfdr module not supported in nonlinear solution sequences
        gpforce=all
        ese=all
$ stress discontinuity supported in sol's 101, 114, and 144 only
        gpsdcon=all
        elsdcon=all
SUBCASE 1
 SUPER=1
 LOADSET=500 $ points to lseq
 SPC=3
SUBCASE 10
$ stress in all elements should be 200 psi
  NLPARM=10
  LOAD=1000  $ combined load of 200 lbs at right edge
  CLOAD=600 $ points to cload
  SPC=1 $ left edge constrained
$
$Mar suggested to remove LOADSET = 501 due to the SFM 9041 (date 09/27/00)
$LOADSET = 501 $ avoidance for e3041
$
SUBCASE 20
  NLPARM=20
  LOAD=2000 $ combined load of 100 psi at upper right corner
  CLOAD=700
  SPC=2 $ left bottom corner constrained
OUTPUT(POST)
SET 200 = ALL $
SURFACE 100 SET 200 NORMAL X3
SET 300 = ALL
VOLUME 101 SET 300
BEGIN BULK
$ PARAMETERS
$PARAM,POST,0
PARAM       POST      -1
param,lgdisp,1
PARAM,EST,1
PARAM,DBDROPT,0
PARAM,GPECT,1
$
NLPARM  10      1               AUTO    1                       NO      +
+       1.e-3   1.e-3   1.e-7
NLPARM  20      1               AUTO    1                       NO      +
+       1.e-3   1.e-3   1.e-7
GRDSET                                                  23456
$
$ HYPERELASTIC ELEMENTS
$
PLPLANE 11      1
PLPLANE 111     1               grid
PLSOLID 20      1
PLSOLID 120     1       grid
MATHP   1       80.     20.     1.E+4
$ PLANE STRAIN HYPERELASTIC ELEMENTS
$ QUADFD - 4 NODES
GRID    101             0.      0.0     0.
GRID    102             1.0     0.0     0.
GRID    103             1.0     1.0     0.
GRID    104             0.0     1.0     0.
$
CQUAD4  101     10      101     102     103     104
CQUAD4  102     110     101     102     103     104
PLPLANE 10      1       12
PLPLANE 110     1       12      grid
CORD2R  12              0.      0.      0.      0.      0.      1.      +C2R
+C2R    1.      0.      1.
$ QUADFD - 4 NODES
GRID    181             0.      0.0     0.
GRID    182             1.0     0.0     0.
GRID    183             1.0     1.0     0.
GRID    184             0.0     1.0     0.
$
CQUAD8  181     11      181     182     183     184
CQUAD8  182     111     181     182     183     184
$ QUADFD - 8 NODES
GRID    111             0.      0.0     0.
GRID    112             1.0     0.0     0.
GRID    113             1.0     1.0     0.
GRID    114             0.0     1.0     0.
GRID    115             0.5     0.0     0.
GRID    116             1.0     0.5     0.
GRID    117             0.5     1.0     0.
GRID    118             0.0     0.5     0.
$
CQUAD8  111     11      111     112     113     114     115     116     +QD81
+QD81   117     118
CQUAD8  112     111     111     112     113     114     115     116     +QD82
+QD82   117     118
$ QUADFD - 4 NODES
GRID    121             0.      0.0     0.
GRID    122             1.0     0.0     0.
GRID    123             1.0     1.0     0.
GRID    124             0.0     1.0     0.
$
CQUAD   121     111     121     122     123     124
CQUAD   122     11      121     122     123     124
$ QUADFD - 8 NODES
GRID    131             0.      0.0     0.
GRID    132             1.0     0.0     0.
GRID    133             1.0     1.0     0.
GRID    134             0.0     1.0     0.
GRID    135             0.5     0.0     0.
GRID    136             1.0     0.5     0.
GRID    137             0.5     1.0     0.
GRID    138             0.0     0.5     0.
$
CQUAD   131     111     131     132     133     134     135     136     +QD83
+QD83   137     138
CQUAD   132     11      131     132     133     134     135     136     +QD84
+QD84   137     138
$ QUADFD - 9 NODES
GRID    141             0.      0.0     0.
GRID    142             1.0     0.0     0.
GRID    143             1.0     1.0     0.
GRID    144             0.0     1.0     0.
GRID    145             0.5     0.0     0.
GRID    146             1.0     0.5     0.
GRID    147             0.5     1.0     0.
GRID    148             0.0     0.5     0.
GRID    149             0.5     0.5     0.
$
CQUAD   141     11      141     142     143     144     145     146     +QD85
+QD85   147     148     149
CQUAD   142     111     141     142     143     144     145     146     +QD86
+QD86   147     148     149
$ CTRIA3 - 3 NODES
GRID    301             0.      0.0     0.
GRID    302             1.0     0.0     0.
GRID    303             1.0     1.0     0.
GRID    304             0.0     1.0     0.
$
CTRIA3  301     111     301     302     303
CTRIA3  302     11      301     303     304
$ CTRIA6 - 3 NODES
GRID    311             0.      0.0     0.
GRID    312             1.0     0.0     0.
GRID    313             1.0     1.0     0.
GRID    314             0.0     1.0     0.
$
CTRIA6  311     11      311     312     313
CTRIA6  312     111     311     313     314
$ CTRIA6 - 6 NODES
GRID    321             0.      0.0     0.
GRID    322             1.0     0.0     0.
GRID    323             1.0     1.0     0.
GRID    324             0.0     1.0     0.
GRID    325             0.5     0.0     0.
GRID    326             1.0     0.5     0.
GRID    327             0.5     1.0     0.
GRID    328             0.0     0.5     0.
GRID    329             0.5     0.5     0.
$
CTRIA6  321     111     321     322     323     325     326     329
CTRIA6  322     11      321     323     324     329     327     328
$
$ SOLID HYPERELASTIC ELEMENTS
$ HEXAFD - 8 NODES
GRID    201             0.0     0.0     0.
GRID    202             1.0     0.0     0.
GRID    203             1.0     1.0     0.
GRID    204             0.0     1.0     0.
GRID    205             0.0     0.0     1.
GRID    206             1.0     0.      1.
GRID    207             1.0     1.      1.
GRID    208             0.      1.      1.
$
CHEXA   201     20      201     202     203     204     205     206     +CH80
+CH80   207     208
CHEXA   202     120     201     202     203     204     205     206     +CH81
+CH81   207     208
$ HEXAFD - 20 NODES
GRID    211             0.0     0.0     0.
GRID    212             1.0     0.0     0.
GRID    213             1.0     1.0     0.
GRID    214             0.0     1.0     0.
GRID    215             0.0     0.0     1.
GRID    216             1.0     0.      1.
GRID    217             1.0     1.      1.
GRID    218             0.      1.      1.
GRID    219             0.5     0.0     0.
GRID    220             1.0     0.5     0.
GRID    221             0.5     1.0     0.
GRID    222             0.0     0.5     0.
GRID    223             0.0     0.0     0.5
GRID    224             1.0     0.      0.5
GRID    225             1.0     1.0     0.5
GRID    226             0.      1.      0.5
GRID    227             0.5     0.0     1.
GRID    228             1.0     0.5     1.
GRID    229             0.5     1.      1.
GRID    230             0.      0.5     1.
$
CHEXA   211     20      211     212     213     214     215     216     +CH81A
+CH81A  217     218     219     220     221     222     223     224     +CH81B
+CH81B  225     226     227     228     229     230
CHEXA   212     120     211     212     213     214     215     216     +CH81C
+CH81C  217     218     219     220     221     222     223     224     +CH81D
+CH81D  225     226     227     228     229     230
$ CPENTA - 6 NODES, HYPERELASTIC
GRID    401             0.0     0.0     0.
GRID    402             1.0     0.0     0.
GRID    403             1.0     1.0     0.
GRID    404             0.0     1.0     0.
GRID    405             0.0     0.0     1.
GRID    406             1.0     0.      1.
GRID    407             1.0     1.      1.
GRID    408             0.      1.      1.
$
CPENTA  401     20      401     402     403     405     406     407
CPENTA  402     120     403     404     401     407     408     405
$ CPENTA - 15 NODES, HYPERELASTIC
GRID    411             0.0     0.0     0.
GRID    412             1.0     0.0     0.
GRID    413             1.0     1.0     0.
GRID    414             0.0     1.0     0.
GRID    415             0.0     0.0     1.
GRID    416             1.0     0.      1.
GRID    417             1.0     1.      1.
GRID    418             0.      1.      1.
GRID    419             0.5     0.0     0.
GRID    420             1.0     0.5     0.
GRID    421             0.5     1.0     0.
GRID    422             0.0     0.5     0.
GRID    423             0.0     0.0     0.5
GRID    424             1.0     0.      0.5
GRID    425             1.0     1.      0.5
GRID    426             0.      1.      0.5
GRID    427             0.5     0.0     1.
GRID    428             1.0     0.5     1.
GRID    429             0.5     1.      1.
GRID    430             0.      0.5     1.
GRID    431             0.5     0.5     0.
GRID    432             0.5     0.5     1.
$
CPENTA  411     20      411     412     413     415     416     417     +P151A
+P151A  419     420     431     423     424     425     427     428     +P151B
+P151B  432
CPENTA  412     120     413     414     411     417     418     415     +P152A
+P152A  421     422     431     425     426     423     429     430     +P152B
+P152B  432
$ CTETRA - 4 NODES, HYPERELASTIC
GRID    501             0.0     0.0     0.
GRID    502             1.0     0.0     0.
GRID    503             1.0     1.0     0.
GRID    504             0.0     1.0     0.
GRID    505             0.0     0.0     1.
GRID    506             1.0     0.      1.
GRID    507             1.0     1.      1.
GRID    508             0.      1.      1.
$
CTETRA  501     20      501     502     506     503
CTETRA  502     120     501     505     506     508
CTETRA  503     20      508     503     504     501
CTETRA  504     120     508     503     507     506
CTETRA  505     20      501     508     503     506
$ CTETRA - 10 NODES, HYPERELASTIC
GRID    511             0.0     0.0     0.
GRID    512             1.0     0.0     0.
GRID    513             1.0     1.0     0.
GRID    514             0.0     1.0     0.
GRID    515             0.0     0.0     1.
GRID    516             1.0     0.      1.
GRID    517             1.0     1.      1.
GRID    518             0.      1.      1.
GRID    519             0.5     0.0     0.
GRID    520             1.0     0.5     0.
GRID    521             0.5     1.0     0.
GRID    522             0.0     0.5     0.
GRID    523             0.0     0.0     0.5
GRID    524             1.0     0.      0.5
GRID    525             1.0     1.      0.5
GRID    526             0.      1.      0.5
GRID    527             0.5     0.0     1.
GRID    528             1.0     0.5     1.
GRID    529             0.5     1.      1.
GRID    530             0.      0.5     1.
$ ... 6 like lines cut
$
CTETRA  511     120     511     512     516     513     519     524     +T101
+T101   536     531     520     533
CTETRA  512     20      511     515     516     518     523     527     +T102
+T102   536     535     530     532
CTETRA  513     120     518     513     514     511     534     521     +T103
+T103   526     535     531     522
CTETRA  514     20      518     513     517     516     534     525     +T104
+T104   529     532     533     528
CTETRA  515     120     511     518     513     516     535     534     +T105
+T105   531     536     532     533
$ AXISYMMETRIC HYPERELASTIC ELEMENTS
$ QUADXFD - 4 NODES
GRID    151             0.      0.0     0.		
GRID    152             1.0     0.0     0.		
GRID    153             1.0     1.0     0.		
GRID    154             0.0     1.0     0.		
$
CQUADX  151     11      151     152     153     154
CQUADX  152     111     151     152     153     154
$ QUADXFD - 8 NODES
GRID    161             0.      0.0     0.
GRID    162             1.0     0.0     0.
GRID    163             1.0     1.0     0.
GRID    164             0.0     1.0     0.
GRID    165             0.5     0.0     0.
GRID    166             1.0     0.5     0.
GRID    167             0.5     1.0     0.
GRID    168             0.0     0.5     0.              1
$
CQUADX  161     11      161     162     163     164     165     166     +QD87
+QD87   167     168
CQUADX  162     111     161     162     163     164     165     166     +QD88
+QD88   167     168
$ QUADXFD - 9 NODES
GRID    171             0.      0.0     0.
GRID    172             1.0     0.0     0.
GRID    173             1.0     1.0     0.
GRID    174             0.0     1.0     0.              1
GRID    175             0.5     0.0     0.
GRID    176             1.0     0.5     0.
GRID    177             0.5     1.0     0.
GRID    178             0.0     0.5     0.
GRID    179             0.5     0.5     0.
$
$ cidx field
$CQUADX  171     1      171     172     173     174     175     176     +QD87
$+QD87  177     178     179     12
CQUADX  171     11      171     172     173     174     175     176     +QD89
+QD89   177     178     179
CQUADX  172     111     171     172     173     174     175     176     +QD90
+QD90   177     178     179
$ TRIAX - 3 NODES
GRID    331             0.      0.0     0.
GRID    332             1.0     0.0     0.
GRID    333             1.0     1.0     0.
GRID    334             0.0     1.0     0.              1
$
CTRIAX  331     111     331     332     333
CTRIAX  332     11      331     333     334
$ TRIAX - 6 NODES
GRID    341             0.      0.0     0.
GRID    342             1.0     0.0     0.
GRID    343             1.0     1.0     0.
GRID    344             0.0     1.0     0.              1
GRID    345             0.5     0.0     0.
GRID    346             1.0     0.5     0.
GRID    347             0.5     1.0     0.
GRID    348             0.0     0.5     0.              1
GRID    349             0.5     0.5     0.
$
CTRIAX  341     11      341     342     343     345     346     349     +TX1
+TX1    12
CTRIAX  342     111     341     343     344     349     347     348
$
$ OTHER MATERIAL NONLINEAR ELEMENTS
$
PSHELL  1001    1001    1.0     -1
PSOLID  2001    1001
$ PLASTIC
MAT1    1001    1.2e3           .49
MATS1   1001            PLASTIC 1200.                   12.e5
$ NLELAST
MAT1    6       1.2e3           .49
MATS1   6       60      NLELAST
TABLES1 60                                                              +TBS1
+TBS1   0.0     0.0     1.0E-3  12.     ENDT
$
$ PLANE STRAIN NONLINEAR ELEMENTS
$ CQUAD4 - MATERIAL NONLINEAR, PLASTIC
GRID    1001            0.      0.0     0.
GRID    1002            1.0     0.0     0.
GRID    1003            1.0     1.0     0.
GRID    1004            0.0     1.0     0.
$
CQUAD4  1001    1001    1001    1002    1003    1004
$ CTRIA3 - 3 NODES, NONLINEAR MATERIAL, PLASTIC
GRID    3001            0.      0.0     0.
GRID    3002            1.0     0.0     0.
GRID    3003            1.0     1.0     0.
GRID    3004            0.0     1.0     0.
$
CTRIA3  3001    1001    3001    3002    3003
CTRIA3  3002    1001    3001    3003    3004
$
$ SOLID NONLINEAR ELEMENTS
$ CHEXA - 8 NODES, MATERIAL NONLINEAR, PLASTIC
GRID    2001            0.0     0.0     0.
GRID    2002            1.0     0.0     0.
GRID    2003            1.0     1.0     0.
GRID    2004            0.0     1.0     0.
GRID    2005            0.0     0.0     1.
GRID    2006            1.0     0.      1.
GRID    2007            1.0     1.      1.
GRID    2008            0.      1.      1.
$
CHEXA   2001    2001    2001    2002    2003    2004    2005    2006    +CHX2
+CHX2   2007    2008
$ CPENTA - 6 NODES, NONLINEAR MATERIAL, NLELAST
GRID    4001            0.0     0.0     0.
GRID    4002            1.0     0.0     0.
GRID    4003            1.0     1.0     0.
GRID    4004            0.0     1.0     0.
GRID    4005            0.0     0.0     1.
GRID    4006            1.0     0.      1.
GRID    4007            1.0     1.      1.
GRID    4008            0.      1.      1.
$
CPENTA  4001    2001    4001    4002    4003    4005    4006    4007
CPENTA  4002    2001    4003    4004    4001    4007    4008    4005
$ CTETRA - 4 NODES, NONLINEAR, PLASTIC
GRID    5001            0.0     0.0     0.
GRID    5002            1.0     0.0     0.
GRID    5003            1.0     1.0     0.
GRID    5004            0.0     1.0     0.
GRID    5005            0.0     0.0     1.
GRID    5006            1.0     0.      1.
GRID    5007            1.0     1.      1.
GRID    5008            0.      1.      1.
$
CTETRA  5001    2001    5001    5002    5006    5003
CTETRA  5002    2001    5001    5005    5006    5008
CTETRA  5003    2001    5008    5003    5004    5001
CTETRA  5004    2001    5008    5003    5007    5006
CTETRA  5005    2001    5001    5008    5003    5006
$
$ LINEAR ELEMENTS - IN SUPERELEMENT 1, MIDSIDE NODES
$
PSHELL  10001   10001   1.0     -1
PSOLID  20001   10001
$ EQUIVALENT MATERIAL PROPERTIES UNDER SMALL STRAIN
MAT1    10001   1.2e3           .49
$ PLANE STRAIN LINEAR ELEMENTS
$ CQUAD8 - 8 NODES, LINEAR, SUPERELEMENT
GRID    10001           0.      0.0     0.                      1
GRID    10002           1.0     0.0     0.
GRID    10003           1.0     1.0     0.                      1
GRID    10004           0.0     1.0     0.                      1
GRID    10005           0.5     0.0     0.                      1
GRID    10006           1.0     0.5     0.                      1
GRID    10007           0.5     1.0     0.                      1
GRID    10008           0.0     0.5     0.                      1
$
CQUAD8  10001   10001   10001   10002   10003   10004   10005   10006   +Q8L
+Q8L    10007   10008
$ CTRIA6 - 6 NODES, LINEAR, SUPERELEMENT
GRID    30001           0.      0.0     0.                      1
GRID    30002           1.0     0.0     0.
GRID    30003           1.0     1.0     0.                      1
GRID    30004           0.0     1.0     0.                      1
GRID    30005           0.5     0.0     0.                      1
GRID    30006           1.0     0.5     0.                      1
GRID    30007           0.5     1.0     0.                      1
GRID    30008           0.0     0.5     0.                      1
GRID    30009           0.5     0.5     0.                      1
$
CTRIA6  30001   10001   30001   30002   30003   30005   30006   30009
CTRIA6  30002   10001   30001   30003   30004   30009   30007   30008
$ SOLID LINEAR ELEMENTS
$ CHEXA - 20 NODES, LINEAR
GRID    20001           0.0     0.0     0.                      1
GRID    20002           1.0     0.0     0.
GRID    20003           1.0     1.0     0.                      1
GRID    20004           0.0     1.0     0.                      1
GRID    20005           0.0     0.0     1.                      1
GRID    20006           1.0     0.      1.                      1
GRID    20007           1.0     1.      1.                      1
GRID    20008           0.      1.      1.                      1
GRID    20009           0.5     0.0     0.                      1
GRID    20010           1.0     0.5     0.                      1
GRID    20011           0.5     1.0     0.                      1
GRID    20012           0.0     0.5     0.                      1
GRID    20013           0.0     0.0     0.5                     1
GRID    20014           1.0     0.      0.5                     1
GRID    20015           1.0     1.0     0.5                     1
GRID    20016           0.      1.      0.5                     1
GRID    20017           0.5     0.0     1.                      1
GRID    20018           1.0     0.5     1.                      1
GRID    20019           0.5     1.      1.                      1
GRID    20020           0.      0.5     1.                      1
$
CHEXA   20001   20001   20001   20002   20003   20004   20005   20006   +H20A
+H20A   20007   20008   20009   20010   20011   20012   20013   20014   +H20B
+H20B   20015   20016   20017   20018   20019   20020
$ CPENTA - 15 NODES, LINEAR
GRID    40001           0.0     0.0     0.                      1
GRID    40002           1.0     0.0     0.
GRID    40003           1.0     1.0     0.                      1
GRID    40004           0.0     1.0     0.                      1
GRID    40005           0.0     0.0     1.                      1
GRID    40006           1.0     0.      1.                      1
GRID    40007           1.0     1.      1.                      1
GRID    40008           0.      1.      1.                      1
GRID    40009           0.5     0.0     0.                      1
GRID    40010           1.0     0.5     0.                      1
GRID    40011           0.5     1.0     0.                      1
GRID    40012           0.0     0.5     0.                      1
GRID    40013           0.0     0.0     0.5                     1
GRID    40014           1.0     0.      0.5                     1
GRID    40015           1.0     1.      0.5                     1
GRID    40016           0.      1.      0.5                     1
GRID    40017           0.5     0.0     1.                      1
GRID    40018           1.0     0.5     1.                      1
GRID    40019           0.5     1.      1.                      1
GRID    40020           0.      0.5     1.                      1
GRID    40021           0.5     0.5     0.                      1
GRID    40022           0.5     0.5     1.                      1
$
CPENTA  40001   20001   40001   40002   40003   40005   40006   40007   +P153A
+P153A  40009   40010   40021   40013   40014   40015   40017   40018   +P153B
+P153B  40022
CPENTA  40002   20001   40003   40004   40001   40007   40008   40005   +P154A
+P154A  40011   40012   40021   40015   40016   40013   40019   40020   +P154B
+P154B  40022
$ CTETRA - 10 NODES, LINEAR
GRID    50001           0.0     0.0     0.                      1
GRID    50002           1.0     0.0     0.
GRID    50003           1.0     1.0     0.                      1
GRID    50004           0.0     1.0     0.                      1
GRID    50005           0.0     0.0     1.                      1
GRID    50006           1.0     0.      1.                      1
GRID    50007           1.0     1.      1.                      1
GRID    50008           0.      1.      1.                      1
GRID    50009           0.5     0.0     0.                      1
GRID    50010           1.0     0.5     0.                      1
GRID    50011           0.5     1.0     0.                      1
GRID    50012           0.0     0.5     0.                      1
GRID    50013           0.0     0.0     0.5                     1
GRID    50014           1.0     0.      0.5                     1
GRID    50015           1.0     1.      0.5                     1
GRID    50016           0.      1.      0.5                     1
GRID    50017           0.5     0.0     1.                      1
GRID    50018           1.0     0.5     1.                      1
GRID    50019           0.5     1.      1.                      1
GRID    50020           0.      0.5     1.                      1
$ ... 6 like lines cut
$
CTETRA  50001   20001   50001   50002   50006   50003   50009   50014   +T106
+T106   50026   50021   50010   50023
CTETRA  50002   20001   50001   50005   50006   50008   50013   50017   +T107
+T107   50026   50025   50020   50022
CTETRA  50003   20001   50008   50003   50004   50001   50024   50011   +T108
+T108   50016   50025   50021   50012
CTETRA  50004   20001   50008   50003   50007   50006   50024   50015   +T109
+T109   50019   50022   50023   50018
CTETRA  50005   20001   50001   50008   50003   50006   50025   50024   +T1010
+T1010  50021   50026   50022   50023
$ AXISYMMETRIC LINEAR ELEMENTS
$ CTRIAX6 - 3 NODES, LINEAR
GRID    30011           0.      0.0     0.                      1
GRID    30012           1.0     0.0     0.
GRID    30013           1.0     0.0     1.                      1
GRID    30014           0.0     0.0     1.                      1
$
CTRIAX6 30011   10001   30011           30012           30013
CTRIAX6 30012   10001   30011           30013           30014
$ CTRIAX6 - 6 NODES, LINEAR
GRID    30021           0.      0.0     0.                      1
GRID    30022           1.0     0.0     0.
GRID    30023           1.0     0.0     1.                      1
GRID    30024           0.0     0.0     1.                      1
GRID    30025           0.5     0.0     0.                      1
GRID    30026           1.0     0.0     0.5                     1
GRID    30027           0.5     0.0     1.                      1
GRID    30028           0.0     0.0     0.5                     1
GRID    30029           0.5     0.0     0.5                     1
$
CTRIAX6 30021   10001   30021   30025   30022   30026   30023   30029
CTRIAX6 30022   10001   30021   30029   30023   30027   30024   30028
$
$ CONSTRAINTS
$ FIRST SUBCASE
$ LEFT EDGE CONTRAINED
$ HYPERELASTIC ELEMENT CONSTRAINTS
SPC1    1       123456  101     104     111     114     121     124     +SP1A
+SP1A   131     134     141     144     201     204     205     208     +SP1B
+SP1B   211     214     215     218     311     314     321     324     +SP1C
+SP1C   401     404     405     408     411     414     415     418     +SP1d
+SP1D   501     504     505     508     511     514     515     518     +SP1E
+SP1E   181     184     301     304     118     328     138     148     +sp1f
+sp1f   222     223     226     230     522     523     526     530     +sp1g
+sp1g   535     422     423     426     430
$ AXISYMMETRIC HYPERELASTIC ELEMENT CONTRAINTS
SPC1    1       123456  151     154     161     164     171     174     +SP1h
+SP1h   331     334     341     344     168     178     348
$ NONLINEAR ELEMENT CONSTRAINTS
SPC1    1       123456  1001    1004    2001    2004    2005    2008    +SP1i
+SP1i   3001    3004    4001    4004    4005    4008    5001    5004    +SP1j
+SP1j   5005    5008
$ SECOND SUBCASE, BOUNDARY CONDITION CHANGE
$ LEFT BOTTOM CORNER CONSTRAINED
$ HYPERELASTIC ELEMENT CONSTRAINTS
SPC1    2       123456  101     111     121     131     141     201     +SP2A
+SP2A   205     211     215     311     321     401     405     411     +SP2B
+SP2B   415     501     505     511     515     181     301
$ AXISYMMETRIC HYPERELASTIC ELEMENT CONTRAINTS
SPC1    2       123456  151	161     171     331     341
SPC1	2	1	164	168	154
$ NONLINEAR ELEMENT CONSTRAINTS
SPC1    2       123456  1001    2001    2005    3001    4001    4005    +SP2C
+SP2C   5001    5005
$ LINEAR SUPERELEMENT CONTRAINTS
SPC1    3       123456  10001   10004   20001   20004   20005   20008   +SP3A
+SP3A   30001   30004   40001   40004   40005   40008   50001   50004   +SP3B
+SP3B   50005   50008   10008   20012   20013   20016   20020   30008   +sp3c
+sp3c   40012   40013   40016   40020   50012   50013   50016   50020   +sp3d
+sp3d   50025
$ LINEAR AXISYMMETRIC ELEMENT CONTRAINTS
SPC1    3       123456  30011   30014   30021   30024   30028
$
$ LOADING CONDITIONS
$ DUMMY LOAD FOR E3041
LSEQ    501     666     502
force   502     101             0.      1.      0.      0.
$
LSEQ    500     666     1000
LSEQ    500     777     2000
$
CLOAD   600     1.      1.      666
CLOAD   700     1.      1.      777
$ SUBCASE 1
$ HYPERELASTIC ELEMENT LOADING
FORCE   1000    102             100.    1.      0.      0.
FORCE   1000    103             100.    1.      0.      0.
FORCE   1000    112             33.33   1.      0.      0.
FORCE   1000    113             33.33   1.      0.      0.
FORCE   1000    116             133.33  1.      0.      0.
FORCE   1000    122             100.    1.      0.      0.
FORCE   1000    123             100.    1.      0.      0.
FORCE   1000    132             33.33   1.      0.      0.
FORCE   1000    133             33.33   1.      0.      0.
FORCE   1000    136             133.33  1.      0.      0.
FORCE   1000    142             33.33   1.      0.      0.
FORCE   1000    143             33.33   1.      0.      0.
FORCE   1000    146             133.33  1.      0.      0.
FORCE   1000    182             100.    1.      0.      0.
FORCE   1000    183             100.    1.      0.      0.
FORCE   1000    202             50.     1.      0.      0.
FORCE   1000    203             50.     1.      0.      0.
FORCE   1000    206             50.     1.      0.      0.
FORCE   1000    207             50.     1.      0.      0.
FORCE   1000    212             -16.67  1.      0.      0.
$ ... 35 like lines cut
$ AXISYMMETRIC HYPERELASTIC LOADING
FORCE   1000    152             100.    1.      0.      0.
FORCE   1000    153             100.    1.      0.      0.
FORCE   1000    162             33.33   1.      0.      0.
FORCE   1000    163             33.33   1.      0.      0.
FORCE   1000    166             133.33  1.      0.      0.
FORCE   1000    172             33.33   1.      0.      0.
FORCE   1000    173             33.33   1.      0.      0.
FORCE   1000    176             133.33  1.      0.      0.
FORCE   1000    332             100.    1.      0.      0.
FORCE   1000    333             100.    1.      0.      0.
FORCE   1000    342             33.33   1.      0.      0.
FORCE   1000    343             33.33   1.      0.      0.
FORCE   1000    346             133.33  1.      0.      0.
$ NONLINEAR ELEMENT LOADING
FORCE   1000    1002            100.    1.      0.      0.
FORCE   1000    1003            100.    1.      0.      0.
FORCE   1000    2002            50.     1.      0.      0.
FORCE   1000    2003            50.     1.      0.      0.
FORCE   1000    2006            50.     1.      0.      0.
FORCE   1000    2007            50.     1.      0.      0.
FORCE   1000    3002            100.    1.      0.      0.
FORCE   1000    3003            100.    1.      0.      0.
FORCE   1000    4002            50.     1.      0.      0.
FORCE   1000    4003            50.     1.      0.      0.
FORCE   1000    4006            50.     1.      0.      0.
FORCE   1000    4007            50.     1.      0.      0.
FORCE   1000    5002            33.33   1.      0.      0.
FORCE   1000    5003            66.67   1.      0.      0.
FORCE   1000    5006            66.67   1.      0.      0.
FORCE   1000    5007            33.33   1.      0.      0.
$ LINEAR ELEMENT LOADING
FORCE   1000    10002           33.33   1.      0.      0.
FORCE   1000    10003           33.33   1.      0.      0.
FORCE   1000    10006           133.33  1.      0.      0.
FORCE   1000    20002           -16.67  1.      0.      0.
FORCE   1000    20003           -16.67  1.      0.      0.
FORCE   1000    20006           -16.67  1.      0.      0.
FORCE   1000    20007           -16.67  1.      0.      0.
FORCE   1000    20010           66.67   1.      0.      0.
FORCE   1000    20014           66.67   1.      0.      0.
FORCE   1000    20015           66.67   1.      0.      0.
FORCE   1000    20018           66.67   1.      0.      0.
FORCE   1000    30002           33.33   1.      0.      0.
FORCE   1000    30003           33.33   1.      0.      0.
FORCE   1000    30006           133.33  1.      0.      0.
FORCE   1000    40002           -16.67  1.      0.      0.
FORCE   1000    40003           -16.67  1.      0.      0.
FORCE   1000    40006           -16.67  1.      0.      0.
FORCE   1000    40007           -16.67  1.      0.      0.
FORCE   1000    40010           66.67   1.      0.      0.
FORCE   1000    40014           66.67   1.      0.      0.
$ ... 12 like lines cut
$ SUBCASE 2
$ HYPERELASTIC ELEMENT LOADING
FORCE   2000    103             100.    1.      0.      0.
FORCE   2000    113             100.    1.      0.      0.
FORCE   2000    123             100.    1.      0.      0.
FORCE   2000    133             100.    1.      0.      0.
FORCE   2000    143             100.    1.      0.      0.
FORCE   2000    183             100.    1.      0.      0.
FORCE   2000    203             50.     1.      0.      0.
FORCE   2000    207             50.     1.      0.      0.
FORCE   2000    213             50.     1.      0.      0.
FORCE   2000    217             50.     1.      0.      0.
FORCE   2000    303             100.    1.      0.      0.
FORCE   2000    313             100.    1.      0.      0.
FORCE   2000    323             100.    1.      0.      0.
FORCE   2000    403             50.     1.      0.      0.
FORCE   2000    407             50.     1.      0.      0.
FORCE   2000    413             50.     1.      0.      0.
FORCE   2000    417             50.     1.      0.      0.
FORCE   2000    503             50.     1.      0.      0.
FORCE   2000    507             50.     1.      0.      0.
FORCE   2000    513             50.     1.      0.      0.
FORCE   2000    517             50.     1.      0.      0.
$ AXISYMMETRIC HYPERELASTIC LOADING
FORCE   2000    153             100.    1.      0.      0.
FORCE   2000    163             100.    1.      0.      0.
FORCE   2000    173             100.    1.      0.      0.
$ NONLINEAR ELEMENT LOADING
FORCE   2000    1003            100.    1.      0.      0.
FORCE   2000    2003            50.     1.      0.      0.
FORCE   2000    2007            50.     1.      0.      0.
FORCE   2000    3003            100.    1.      0.      0.
FORCE   2000    4003            50.     1.      0.      0.
FORCE   2000    4007            50.     1.      0.      0.
FORCE   2000    5003            50.     1.      0.      0.
FORCE   2000    5007            50.     1.      0.      0.
$ LINEAR ELEMENT LOADING
FORCE   2000    10003           100.    1.      0.      0.
FORCE   2000    20003           50.     1.      0.      0.
FORCE   2000    20007           50.     1.      0.      0.
FORCE   2000    30003           100.    1.      0.      0.
FORCE   2000    40003           50.     1.      0.      0.
FORCE   2000    40007           50.     1.      0.      0.
FORCE   2000    50003           50.     1.      0.      0.
FORCE   2000    50007           50.     1.      0.      0.
FORCE   2000    30013           100.    1.      0.      0.
FORCE   2000    30023           100.    1.      0.      0.
ENDDATA
