$ DEC/CMS REPLACEMENT HISTORY, Element HTRUSSX.DAT
$ *4     8-JUL-1994 08:45:42 A_BOYADJIAN "68 PLUS/G/ UPDATED FOR V68"
$ *3    17-APR-1991 18:26:05 J_CASTRO "67 PLUS/ETD/ moved param,heatstat to bulk data section per section 3 of UM"
$ *2    18-JAN-1991 10:00:31 EC004ABB "67 PLUS/G/ PER JFC MOVED PARAM,HEATSTAT,YES AFTER ELFORCE CARD"
$ *1    15-JUN-1990 19:33:32 CMSMGR "66B PLUS/G 66B/ Initial installation of TPL test problems"
$ DEC/CMS REPLACEMENT HISTORY, Element HTRUSSX.DAT
ID MSC, HTRUSSX $ JFC 09AUG88
$ID MSC, HTRUSS   $
$ID       PROB001 TRUSS
$ FROM SEW.  14 OCT 80
DIAG 8
TIME 5
SOL 101
$SOL 61
$ ALTER NOT REQUIRED FOR HEAT FOLLOWED BY STRESS IN SOL 101
$ ADD PARAM HEATSTAT,YES TO BULK DATA FOR HEAT FOLLOWED BY STRESS.
$READ 9 $ RF61D01
CEND
TITLE = THREE-PANEL TRUSS                                      HTRUSSX
SUBTITLE = EXAMPLE OF HEAT TRANSFER FOLLOWED BY STRESS
SEALL = ALL
SPCF = ALL
OLOAD = ALL
SUBCASE 1
LABEL = HEAT ANALYSIS
SPC = 1 $ CONSTRAINTS FOR HEAT TRANSFER
LOAD = 123
PARAM,EST,1 $ PRINT ELEMENT MEASURES(LENGTHS)
OUTPUT
THERMAL = ALL
FLUX = ALL
SUBCASE 2
LABEL = STRESS ANALYSIS
PARAM,EST,-1 $ NO MEASURES
SPC = 2 $ CONSTRAINTS FOR STRUCTURES
TEMP(LOAD) = 1
OUTPUT
DISP = ALL
STRESS = ALL
ELFORCE = ALL
OUTPUT(PLOT)
CSCALE 1.2
PLOTTER NAST
SET 1 INCLUDE ALL
FIND
PLOT SET 1
PLOT SET 1 SHRINK
PLOT STATIC DEFORMATION 0,1,2 SET 1
BEGIN BULK
$
$ USER INFORMATION MESSAGE: The following defaults were assumed for data
$                           not in earlier versions of MSC/NASTRAN.
$
$        CONVM   TA1=99999
$        CHBDYP  E1=3.141, E2=1.414, E3=1.732
$        MAT4    RHO (DENSITY)=1.
$        PCONVM  FORM=0, FLAG=1, COEF=1.E-6, EXPR=0., EXPPI=0., EXPPO=0.
$        PHBDY   D1=1.0, D2=1.0
$        SPC     C1=1
$        RADCAV  ICAVITY=1, RMAX=0.1
$        RADLST  ICAVITY=1
$        RADMTX  ICAVITY=1
$        VIEW3D  ICAVITY=1
$
PARAM   HEATSTATYES
PARAM   PDRMSG  0
PARAM   PLTMSG  0
CROD    1       1       1       2
CROD    2       2       1       3
CROD    3       3       2       3
CROD    4       1       2       4
CROD    5       1       3       4
CROD    6       3       3       5
CROD    7       3       4       5
CROD    8       2       5       6
CROD    9       1       4       6
QVOL    123     5.E-3           1       THRU    9
GRID    1       0       0.0     0.0     0.0     0
GRID    2       0       180.0   0.0     0.0     0
GRID    3       0       180.0   240.0   0.0     0
GRID    4       0       360.0   0.0     0.0     0
GRID    5       0       360.0   240.0   0.0     0
GRID    6       0       540.0   0.0     0.0     0
MAT1    1       30.0E3                  1.      6.5-6   4.37+2          +MAT1
*MAT1   16.99235344     11.814744801    1.E04
MAT4    1       .6      .2
PROD    1       1       7.97
PROD    2       1       21.16
PROD    3       1       11.77
SPC,1,1,1,437.
SPC,1,6,1,437.
SPC1,2,12,1,6
PARAM,POST,-1
ENDDATA
ENDDATA
