$ The following ASSIGN statement will result in the XYPLOT results 
$ being stored in a .ps (postscript) file automatically, without
$ the need to run the PLOTPS utility.
ASSIGN PLOT=*,FORM=FORMATTED
$
$   ws14-3_satellite_lateral_vertical_nastran.bdf
$
$   add:    random input plus corresponding output requests
$
SOL 111
CEND
ECHO = NONE
$
SDAMPING = 1
METHOD = 1
FREQUENCY = 1
SPC = 1
$ Grids for data recovery
SET 55=4,3321,3734
$ACCEL(PLOT,PHASE,PSDF,CRMS)=55
$
$ Elements for data recovery
SET 65 = 561,562
STRESS(SORT2,PSDF,ATOC,CRMS)=65
STRAIN(SORT2,PSDF,ATOC,CRMS)=65
SET 99 = 800, 900
RANDOM = 900
$
SUBCASE 1
   SUBTITLE=lateral_acceleration
   DLOAD = 3
$
SUBCASE 2
   SUBTITLE=vertical_acceleration
   DLOAD = 30
$
$

BEGIN BULK
$PARAM    POST    0
PARAM    WTMASS .00259
PARAM   PRTMAXIM YES
PARAM   RMSINT   LOGLOG
$
$ include the satellite model and fixed boundary conditions
$INCLUDE 'WS14-3_satellite_model_pcomp.bdf'
$
$   WS14-3_satellite_model.bdf
$
$   geometric input file for satellite model
$   SPC1 set id 1 defines the base constraints (fixed DOF 123)
$
$ Elements and Element Properties for region : pbarl.4
PBARL    4       1               BOX                                    +      A
+      A 2.      2.      .1      .1      0.
$ Pset: "pbarl.4" will be imported as: "pbarl.4"
CBAR     2283    4       1849    651     0.      0.      1.
CBAR     2284    4       1849    434     0.      0.      1.
CBAR     2285    4       1849    185     0.      0.      1.
CBAR     2286    4       1849    181     0.      0.      1.
CBAR     2287    4       1849    1085    0.      0.      1.
CBAR     2288    4       1849    868     0.      0.      1.
$ Elements and Element Properties for region : pbarl.78
PBARL    78      1               TUBE                                   +      B
+      B 1.      .5      0.
$ Pset: "pbarl.78" will be imported as: "pbarl.78"
CBAR     2289    78      3482    3818    0.      0.      1.
CBAR     2290    78      3818    3824    0.      0.      1.
CBAR     2291    78      3824    3830    0.      0.      1.
CBAR     2292    78      3830    3560    0.      0.      1.
CBAR     2293    78      3404    3788    0.      0.      1.
CBAR     2294    78      3788    3794    0.      0.      1.
CBAR     2295    78      3794    3800    0.      0.      1.
CBAR     2296    78      3800    3482    0.      0.      1.
CBAR     2297    78      3326    3758    0.      0.      1.
CBAR     2298    78      3758    3764    0.      0.      1.
CBAR     2299    78      3764    3770    0.      0.      1.
CBAR     2300    78      3770    3404    0.      0.      1.
CBAR     2301    78      3716    3728    0.      0.      1.
CBAR     2302    78      3728    3734    0.      0.      1.
CBAR     2303    78      3734    3740    0.      0.      1.
CBAR     2304    78      3740    3326    0.      0.      1.
CBAR     2305    78      3638    3878    0.      0.      1.
CBAR     2306    78      3878    3884    0.      0.      1.
CBAR     2307    78      3884    3890    0.      0.      1.
CBAR     2308    78      3890    3716    0.      0.      1.
$ ... 4 like lines cut
$ Elements and Element Properties for region : pbarl.79
PBARL    79      1               TUBE                                   +      C
+      C 1.      .5      0.
$ Pset: "pbarl.79" will be imported as: "pbarl.79"
CBAR     2313    79      2984    3315    0.      1.      0.
CBAR     2314    79      3315    3316    0.      1.      0.
CBAR     2315    79      3316    3317    0.      1.      0.
CBAR     2316    79      3317    3318    0.      1.      0.
CBAR     2317    79      3318    3319    0.      1.      0.
CBAR     2318    79      3319    3320    0.      1.      0.
CBAR     2319    79      3320    3321    0.      1.      0.
CBAR     2320    79      3321    3322    0.      1.      0.
CBAR     2321    79      3322    3323    0.      1.      0.
CBAR     2322    79      3323    3324    0.      1.      0.
CBAR     2323    79      3324    3325    0.      1.      0.
CBAR     2324    79      3325    3326    0.      1.      0.
CBAR     2325    79      3014    3393    0.      1.      0.
CBAR     2326    79      3393    3394    0.      1.      0.
CBAR     2327    79      3394    3395    0.      1.      0.
CBAR     2328    79      3395    3396    0.      1.      0.
CBAR     2329    79      3396    3397    0.      1.      0.
CBAR     2330    79      3397    3398    0.      1.      0.
CBAR     2331    79      3398    3399    0.      1.      0.
CBAR     2332    79      3399    3400    0.      1.      0.
$ ... 52 like lines cut
$ Elements and Element Properties for region : pshell.1
PSHELL   1       1       .25     1               1

$ Pset: "pshell.1" will be imported as: "pshell.1"
CQUAD4   73      1       2526    85      127     126     0.      0.
CQUAD4   74      1       85      89      128     127     0.      0.
CQUAD4   75      1       89      93      129     128     0.      0.
CQUAD4   76      1       93      2604    130     129     0.      0.
CQUAD4   77      1       126     127     132     131     0.      0.
CQUAD4   78      1       127     128     133     132     0.      0.
CQUAD4   79      1       128     129     134     133     0.      0.
CQUAD4   80      1       129     130     135     134     0.      0.
CQUAD4   81      1       131     132     137     136     0.      0.
CQUAD4   82      1       132     133     138     137     0.      0.
CQUAD4   83      1       133     134     139     138     0.      0.
CQUAD4   84      1       134     135     140     139     0.      0.
CQUAD4   85      1       136     137     142     141     0.      0.
CQUAD4   86      1       137     138     143     142     0.      0.
CQUAD4   87      1       138     139     144     143     0.      0.
CQUAD4   88      1       139     140     145     144     0.      0.
CQUAD4   89      1       141     142     147     146     0.      0.
CQUAD4   90      1       142     143     148     147     0.      0.
CQUAD4   91      1       143     144     149     148     0.      0.
CQUAD4   92      1       144     145     150     149     0.      0.
$ ... 268 like lines cut
$ Elements and Element Properties for region : pshell.2
PSHELL   2       1       .1      1               1
$ Pset: "pshell.2" will be imported as: "pshell.2"
CQUAD4   913     2       185     3664    3724    2691    0.      0.
CQUAD4   914     2       3664    3677    3725    3724    0.      0.
CQUAD4   915     2       3677    3690    3726    3725    0.      0.
CQUAD4   916     2       3690    3703    3727    3726    0.      0.
CQUAD4   917     2       3703    3716    3728    3727    0.      0.
CQUAD4   918     2       2691    3724    3730    2692    0.      0.
CQUAD4   919     2       3724    3725    3731    3730    0.      0.
CQUAD4   920     2       3725    3726    3732    3731    0.      0.
CQUAD4   921     2       3726    3727    3733    3732    0.      0.
CQUAD4   922     2       3727    3728    3734    3733    0.      0.
CQUAD4   923     2       2692    3730    3736    2693    0.      0.
CQUAD4   924     2       3730    3731    3737    3736    0.      0.
CQUAD4   925     2       3731    3732    3738    3737    0.      0.
CQUAD4   926     2       3732    3733    3739    3738    0.      0.
CQUAD4   927     2       3733    3734    3740    3739    0.      0.
CQUAD4   928     2       2693    3736    3274    434     0.      0.
CQUAD4   929     2       3736    3737    3287    3274    0.      0.
CQUAD4   930     2       3737    3738    3300    3287    0.      0.
CQUAD4   931     2       3738    3739    3313    3300    0.      0.
CQUAD4   932     2       3739    3740    3326    3313    0.      0.
$ ... 172 like lines cut
$ Elements and Element Properties for region : pshell.3
PSHELL   3       1       .35     1               1
$ Pset: "pshell.3" will be imported as: "pshell.3"
CQUAD4   361     3       2604    2956    2962    105     0.      0.
CQUAD4   362     3       2956    2957    2963    2962    0.      0.
CQUAD4   363     3       2957    2958    2964    2963    0.      0.
CQUAD4   364     3       2958    2959    2965    2964    0.      0.
CQUAD4   365     3       2959    2960    2966    2965    0.      0.
CQUAD4   366     3       105     2962    2968    109     0.      0.
CQUAD4   367     3       2962    2963    2969    2968    0.      0.
CQUAD4   368     3       2963    2964    2970    2969    0.      0.
CQUAD4   369     3       2964    2965    2971    2970    0.      0.
CQUAD4   370     3       2965    2966    2972    2971    0.      0.
CQUAD4   371     3       109     2968    2974    113     0.      0.
CQUAD4   372     3       2968    2969    2975    2974    0.      0.
CQUAD4   373     3       2969    2970    2976    2975    0.      0.
CQUAD4   374     3       2970    2971    2977    2976    0.      0.
CQUAD4   375     3       2971    2972    2978    2977    0.      0.
CQUAD4   376     3       113     2974    2980    2162    0.      0.
CQUAD4   377     3       2974    2975    2981    2980    0.      0.
CQUAD4   378     3       2975    2976    2982    2981    0.      0.
CQUAD4   379     3       2976    2977    2983    2982    0.      0.
CQUAD4   380     3       2977    2978    2984    2983    0.      0.
$ ... 172 like lines cut
$ Elements and Element Properties for region : pshell.5
PSHELL*  5               2               .0183333        2
*                        2
$ Pset: "pshell.5" will be imported as: "pshell.5"
CQUAD4   1       5       2162    2       6       5       0.      0.
$ Elements and Element Properties for region : pshell.6
PSHELL   6       2       .015    2               2
$ Pset: "pshell.6" will be imported as: "pshell.6"
CQUAD4   2       6       2       3       7       6       0.      0.
$ Elements and Element Properties for region : pshell.7
PSHELL*  7               2               .0116667        2
*                        2
$ Pset: "pshell.7" will be imported as: "pshell.7"
CQUAD4   3       7       3       4       8       7       0.      0.
$ Elements and Element Properties for region : pshell.8
PSHELL*  8               2               .0183333        2
*                        2
$ Pset: "pshell.8" will be imported as: "pshell.8"
CQUAD4   4       8       5       6       10      9       0.      0.
$ Elements and Element Properties for region : pshell.9
PSHELL   9       2       .015    2               2
$ Pset: "pshell.9" will be imported as: "pshell.9"
CQUAD4   5       9       6       7       11      10      0.      0.
$ Elements and Element Properties for region : pshell.10
PSHELL*  10              2               .0116667        2
*                        2
$ Pset: "pshell.10" will be imported as: "pshell.10"
CQUAD4   6       10      7       8       12      11      0.      0.
$ Elements and Element Properties for region : pshell.11
PSHELL*  11              2               .0183333        2
*                        2
$ Pset: "pshell.11" will be imported as: "pshell.11"
CQUAD4   7       11      9       10      14      13      0.      0.
$ Elements and Element Properties for region : pshell.12
PSHELL   12      2       .015    2               2
$ Pset: "pshell.12" will be imported as: "pshell.12"
CQUAD4   8       12      10      11      15      14      0.      0.
$ Elements and Element Properties for region : pshell.13
PSHELL*  13              2               .0116667        2
*                        2
$ Pset: "pshell.13" will be imported as: "pshell.13"
CQUAD4   9       13      11      12      16      15      0.      0.
$ Elements and Element Properties for region : pshell.14
PSHELL*  14              2               .0183333        2
*                        2
$ Pset: "pshell.14" will be imported as: "pshell.14"
CQUAD4   10      14      13      14      18      2253    0.      0.
$ Elements and Element Properties for region : pshell.15
PSHELL   15      2       .015    2               2
$ Pset: "pshell.15" will be imported as: "pshell.15"
CQUAD4   11      15      14      15      19      18      0.      0.
$ Elements and Element Properties for region : pshell.16
PSHELL*  16              2               .0116667        2
*                        2
$ Pset: "pshell.16" will be imported as: "pshell.16"
CQUAD4   12      16      15      16      20      19      0.      0.
$ Elements and Element Properties for region : pshell.17
PSHELL*  17              2               .0183333        2
*                        2
$ Pset: "pshell.17" will be imported as: "pshell.17"
CQUAD4   13      17      2253    18      26      25      0.      0.
$ Elements and Element Properties for region : pshell.18
PSHELL   18      2       .015    2               2
$ Pset: "pshell.18" will be imported as: "pshell.18"
CQUAD4   14      18      18      19      27      26      0.      0.
$ Elements and Element Properties for region : pshell.19
PSHELL*  19              2               .0116667        2
*                        2
$ Pset: "pshell.19" will be imported as: "pshell.19"
CQUAD4   15      19      19      20      28      27      0.      0.
$ Elements and Element Properties for region : pshell.20
PSHELL*  20              2               .0183333        2
*                        2
$ Pset: "pshell.20" will be imported as: "pshell.20"
CQUAD4   16      20      25      26      30      29      0.      0.
$ Elements and Element Properties for region : pshell.21
PSHELL   21      2       .015    2               2
$ Pset: "pshell.21" will be imported as: "pshell.21"
CQUAD4   17      21      26      27      31      30      0.      0.
$ Elements and Element Properties for region : pshell.22
PSHELL*  22              2               .0116667        2
*                        2
$ Pset: "pshell.22" will be imported as: "pshell.22"
CQUAD4   18      22      27      28      32      31      0.      0.
$ Elements and Element Properties for region : pshell.23
PSHELL*  23              2               .0183333        2
*                        2
$ Pset: "pshell.23" will be imported as: "pshell.23"
CQUAD4   19      23      29      30      34      33      0.      0.
$ Elements and Element Properties for region : pshell.24
PSHELL   24      2       .015    2               2
$ Pset: "pshell.24" will be imported as: "pshell.24"
CQUAD4   20      24      30      31      35      34      0.      0.
$ Elements and Element Properties for region : pshell.25
PSHELL*  25              2               .0116667        2
*                        2
$ Pset: "pshell.25" will be imported as: "pshell.25"
CQUAD4   21      25      31      32      36      35      0.      0.
$ Elements and Element Properties for region : pshell.26
PSHELL*  26              2               .0183333        2
*                        2
$ Pset: "pshell.26" will be imported as: "pshell.26"
CQUAD4   22      26      33      34      38      2344    0.      0.
$ Elements and Element Properties for region : pshell.27
PSHELL   27      2       .015    2               2
$ Pset: "pshell.27" will be imported as: "pshell.27"
CQUAD4   23      27      34      35      39      38      0.      0.
$ Elements and Element Properties for region : pshell.28
PSHELL*  28              2               .0116667        2
*                        2
$ Pset: "pshell.28" will be imported as: "pshell.28"
CQUAD4   24      28      35      36      40      39      0.      0.
$ Elements and Element Properties for region : pshell.29
PSHELL*  29              2               .0183333        2
*                        2
$ Pset: "pshell.29" will be imported as: "pshell.29"
CQUAD4   25      29      2344    38      46      45      0.      0.
$ Elements and Element Properties for region : pshell.30
PSHELL   30      2       .015    2               2
$ Pset: "pshell.30" will be imported as: "pshell.30"
CQUAD4   26      30      38      39      47      46      0.      0.
$ Elements and Element Properties for region : pshell.31
PSHELL*  31              2               .0116667        2
*                        2
$ Pset: "pshell.31" will be imported as: "pshell.31"
CQUAD4   27      31      39      40      48      47      0.      0.
$ Elements and Element Properties for region : pshell.32
PSHELL*  32              2               .0183333        2
*                        2
$ Pset: "pshell.32" will be imported as: "pshell.32"
CQUAD4   28      32      45      46      50      49      0.      0.
$ Elements and Element Properties for region : pshell.33
PSHELL   33      2       .015    2               2
$ Pset: "pshell.33" will be imported as: "pshell.33"
CQUAD4   29      33      46      47      51      50      0.      0.
$ Elements and Element Properties for region : pshell.34
PSHELL*  34              2               .0116667        2
*                        2
$ Pset: "pshell.34" will be imported as: "pshell.34"
CQUAD4   30      34      47      48      52      51      0.      0.
$ Elements and Element Properties for region : pshell.35
PSHELL*  35              2               .0183333        2
*                        2
$ Pset: "pshell.35" will be imported as: "pshell.35"
CQUAD4   31      35      49      50      54      53      0.      0.
$ Elements and Element Properties for region : pshell.36
PSHELL   36      2       .015    2               2
$ Pset: "pshell.36" will be imported as: "pshell.36"
CQUAD4   32      36      50      51      55      54      0.      0.
$ Elements and Element Properties for region : pshell.37
PSHELL*  37              2               .0116667        2
*                        2
$ Pset: "pshell.37" will be imported as: "pshell.37"
CQUAD4   33      37      51      52      56      55      0.      0.
$ Elements and Element Properties for region : pshell.38
PSHELL*  38              2               .0183333        2
*                        2
$ Pset: "pshell.38" will be imported as: "pshell.38"
CQUAD4   34      38      53      54      58      2435    0.      0.
$ Elements and Element Properties for region : pshell.39
PSHELL   39      2       .015    2               2
$ Pset: "pshell.39" will be imported as: "pshell.39"
CQUAD4   35      39      54      55      59      58      0.      0.
$ Elements and Element Properties for region : pshell.40
PSHELL*  40              2               .0116667        2
*                        2
$ Pset: "pshell.40" will be imported as: "pshell.40"
CQUAD4   36      40      55      56      60      59      0.      0.
$ Elements and Element Properties for region : pshell.41
PSHELL*  41              2               .0183333        2
*                        2
$ Pset: "pshell.41" will be imported as: "pshell.41"
CQUAD4   37      41      2435    58      66      65      0.      0.
$ Elements and Element Properties for region : pshell.42
PSHELL   42      2       .015    2               2
$ Pset: "pshell.42" will be imported as: "pshell.42"
CQUAD4   38      42      58      59      67      66      0.      0.
$ Elements and Element Properties for region : pshell.43
PSHELL*  43              2               .0116667        2
*                        2
$ Pset: "pshell.43" will be imported as: "pshell.43"
CQUAD4   39      43      59      60      68      67      0.      0.
$ Elements and Element Properties for region : pshell.44
PSHELL*  44              2               .0183333        2
*                        2
$ Pset: "pshell.44" will be imported as: "pshell.44"
CQUAD4   40      44      65      66      70      69      0.      0.
$ Elements and Element Properties for region : pshell.45
PSHELL   45      2       .015    2               2
$ Pset: "pshell.45" will be imported as: "pshell.45"
CQUAD4   41      45      66      67      71      70      0.      0.
$ Elements and Element Properties for region : pshell.46
PSHELL*  46              2               .0116667        2
*                        2
$ Pset: "pshell.46" will be imported as: "pshell.46"
CQUAD4   42      46      67      68      72      71      0.      0.
$ Elements and Element Properties for region : pshell.47
PSHELL*  47              2               .0183333        2
*                        2
$ Pset: "pshell.47" will be imported as: "pshell.47"
CQUAD4   43      47      69      70      74      73      0.      0.
$ Elements and Element Properties for region : pshell.48
PSHELL   48      2       .015    2               2
$ Pset: "pshell.48" will be imported as: "pshell.48"
CQUAD4   44      48      70      71      75      74      0.      0.
$ Elements and Element Properties for region : pshell.49
PSHELL*  49              2               .0116667        2
*                        2
$ Pset: "pshell.49" will be imported as: "pshell.49"
CQUAD4   45      49      71      72      76      75      0.      0.
$ Elements and Element Properties for region : pshell.50
PSHELL*  50              2               .0183333        2
*                        2
$ Pset: "pshell.50" will be imported as: "pshell.50"
CQUAD4   46      50      73      74      78      2526    0.      0.
$ Elements and Element Properties for region : pshell.51
PSHELL   51      2       .015    2               2
$ Pset: "pshell.51" will be imported as: "pshell.51"
CQUAD4   47      51      74      75      79      78      0.      0.
$ Elements and Element Properties for region : pshell.52
PSHELL*  52              2               .0116667        2
*                        2
$ Pset: "pshell.52" will be imported as: "pshell.52"
CQUAD4   48      52      75      76      80      79      0.      0.
$ Elements and Element Properties for region : pshell.53
PSHELL*  53              2               .0183333        2
*                        2
$ Pset: "pshell.53" will be imported as: "pshell.53"
CQUAD4   49      53      2526    78      86      85      0.      0.
$ Elements and Element Properties for region : pshell.54
PSHELL   54      2       .015    2               2
$ Pset: "pshell.54" will be imported as: "pshell.54"
CQUAD4   50      54      78      79      87      86      0.      0.
$ Elements and Element Properties for region : pshell.55
PSHELL*  55              2               .0116667        2
*                        2
$ Pset: "pshell.55" will be imported as: "pshell.55"
CQUAD4   51      55      79      80      88      87      0.      0.
$ Elements and Element Properties for region : pshell.56
PSHELL*  56              2               .0183333        2
*                        2
$ Pset: "pshell.56" will be imported as: "pshell.56"
CQUAD4   52      56      85      86      90      89      0.      0.
$ Elements and Element Properties for region : pshell.57
PSHELL   57      2       .015    2               2
$ Pset: "pshell.57" will be imported as: "pshell.57"
CQUAD4   53      57      86      87      91      90      0.      0.
$ Elements and Element Properties for region : pshell.58
PSHELL*  58              2               .0116667        2
*                        2
$ Pset: "pshell.58" will be imported as: "pshell.58"
CQUAD4   54      58      87      88      92      91      0.      0.
$ Elements and Element Properties for region : pshell.59
PSHELL*  59              2               .0183333        2
*                        2
$ Pset: "pshell.59" will be imported as: "pshell.59"
CQUAD4   55      59      89      90      94      93      0.      0.
$ Elements and Element Properties for region : pshell.60
PSHELL   60      2       .015    2               2
$ Pset: "pshell.60" will be imported as: "pshell.60"
CQUAD4   56      60      90      91      95      94      0.      0.
$ Elements and Element Properties for region : pshell.61
PSHELL*  61              2               .0116667        2
*                        2
$ Pset: "pshell.61" will be imported as: "pshell.61"
CQUAD4   57      61      91      92      96      95      0.      0.
$ Elements and Element Properties for region : pshell.62
PSHELL*  62              2               .0183333        2
*                        2
$ Pset: "pshell.62" will be imported as: "pshell.62"
CQUAD4   58      62      93      94      98      2604    0.      0.
$ Elements and Element Properties for region : pshell.63
PSHELL   63      2       .015    2               2
$ Pset: "pshell.63" will be imported as: "pshell.63"
CQUAD4   59      63      94      95      99      98      0.      0.
$ Elements and Element Properties for region : pshell.64
PSHELL*  64              2               .0116667        2
*                        2
$ Pset: "pshell.64" will be imported as: "pshell.64"
CQUAD4   60      64      95      96      100     99      0.      0.
$ Elements and Element Properties for region : pshell.65
PSHELL*  65              2               .0183333        2
*                        2
$ Pset: "pshell.65" will be imported as: "pshell.65"
CQUAD4   61      65      2604    98      106     105     0.      0.
$ Elements and Element Properties for region : pshell.66
PSHELL   66      2       .015    2               2
$ Pset: "pshell.66" will be imported as: "pshell.66"
CQUAD4   62      66      98      99      107     106     0.      0.
$ Elements and Element Properties for region : pshell.67
PSHELL*  67              2               .0116667        2
*                        2
$ Pset: "pshell.67" will be imported as: "pshell.67"
CQUAD4   63      67      99      100     108     107     0.      0.
$ Elements and Element Properties for region : pshell.68
PSHELL*  68              2               .0183333        2
*                        2
$ Pset: "pshell.68" will be imported as: "pshell.68"
CQUAD4   64      68      105     106     110     109     0.      0.
$ Elements and Element Properties for region : pshell.69
PSHELL   69      2       .015    2               2
$ Pset: "pshell.69" will be imported as: "pshell.69"
CQUAD4   65      69      106     107     111     110     0.      0.
$ Elements and Element Properties for region : pshell.70
PSHELL*  70              2               .0116667        2
*                        2
$ Pset: "pshell.70" will be imported as: "pshell.70"
CQUAD4   66      70      107     108     112     111     0.      0.
$ Elements and Element Properties for region : pshell.71
PSHELL*  71              2               .0183333        2
*                        2
$ Pset: "pshell.71" will be imported as: "pshell.71"
CQUAD4   67      71      109     110     114     113     0.      0.
$ Elements and Element Properties for region : pshell.72
PSHELL   72      2       .015    2               2
$ Pset: "pshell.72" will be imported as: "pshell.72"
CQUAD4   68      72      110     111     115     114     0.      0.
$ Elements and Element Properties for region : pshell.73
PSHELL*  73              2               .0116667        2
*                        2
$ Pset: "pshell.73" will be imported as: "pshell.73"
CQUAD4   69      73      111     112     116     115     0.      0.
$ Elements and Element Properties for region : pshell.74
PSHELL*  74              2               .0183333        2
*                        2
$ Pset: "pshell.74" will be imported as: "pshell.74"
CQUAD4   70      74      113     114     2       2162    0.      0.
$ Elements and Element Properties for region : pshell.75
PSHELL   75      2       .015    2               2
$ Pset: "pshell.75" will be imported as: "pshell.75"
CQUAD4   71      75      114     115     3       2       0.      0.
$ Elements and Element Properties for region : pshell.76
PSHELL*  76              2               .0116667        2
*                        2
$ Pset: "pshell.76" will be imported as: "pshell.76"
CQUAD4   72      76      115     116     4       3       0.      0.
$ Elements and Element Properties for region : pshell.77
$PSHELL   77      1       .125    1               1

PCOMP         77                                                        +       
+              1  0.0125      0.     YES       1   0.100      0.     YES+       
+              1  0.0125      0.     YES 
$ Pset: "pshell.77" will be imported as: "pshell.77"
CQUAD4   553     77      2162    195     3263    2980    0.      0.
CQUAD4   554     77      195     200     3264    3263    0.      0.
CQUAD4   555     77      200     205     3265    3264    0.      0.
CQUAD4   556     77      205     210     3266    3265    0.      0.
CQUAD4   557     77      210     2659    3267    3266    0.      0.
CQUAD4   558     77      2659    2664    3268    3267    0.      0.
CQUAD4   559     77      2664    2669    3269    3268    0.      0.
CQUAD4   560     77      2669    2674    3270    3269    0.      0.
CQUAD4   561     77      2674    2679    3271    3270    0.      0.
CQUAD4   562     77      2679    2684    3272    3271    0.      0.
CQUAD4   563     77      2684    2689    3273    3272    0.      0.
CQUAD4   564     77      2689    434     3274    3273    0.      0.
CQUAD4   565     77      2980    3263    3276    2981    0.      0.
CQUAD4   566     77      3263    3264    3277    3276    0.      0.
CQUAD4   567     77      3264    3265    3278    3277    0.      0.
CQUAD4   568     77      3265    3266    3279    3278    0.      0.
CQUAD4   569     77      3266    3267    3280    3279    0.      0.
CQUAD4   570     77      3267    3268    3281    3280    0.      0.
CQUAD4   571     77      3268    3269    3282    3281    0.      0.
CQUAD4   572     77      3269    3270    3283    3282    0.      0.
$ ... 340 like lines cut
$ Elements and Element Properties for region : conm2
CONM2    1675    651     0       20.     0.      0.      0.
         0.      0.      0.      0.      0.      0.
CONM2    1676    434     0       20.     0.      0.      0.
         0.      0.      0.      0.      0.      0.
CONM2    1677    185     0       20.     0.      0.      0.
         0.      0.      0.      0.      0.      0.
CONM2    1678    181     0       20.     0.      0.      0.
         0.      0.      0.      0.      0.      0.
CONM2    1679    1085    0       20.     0.      0.      0.
         0.      0.      0.      0.      0.      0.
CONM2    1680    868     0       20.     0.      0.      0.
         0.      0.      0.      0.      0.      0.
CONM2    2275    2253    0       20.     0.      0.      0.
         0.      0.      0.      0.      0.      0.
CONM2    2276    2162    0       20.     0.      0.      0.
         0.      0.      0.      0.      0.      0.
CONM2    2277    2604    0       20.     0.      0.      0.
         0.      0.      0.      0.      0.      0.
CONM2    2278    2526    0       20.     0.      0.      0.
         0.      0.      0.      0.      0.      0.
CONM2    2279    2435    0       20.     0.      0.      0.
         0.      0.      0.      0.      0.      0.
CONM2    2280    2344    0       20.     0.      0.      0.
         0.      0.      0.      0.      0.      0.
CONM2    2281    2654    0       60.     0.      0.      0.
         0.      0.      0.      0.      0.      0.
CONM2    2282    1849    0       40.     0.      0.      0.
         0.      0.      0.      0.      0.      0.
CONM2    2385    3326    0       4.65    0.      0.      0.
         0.      0.      0.      0.      0.      0.
CONM2    2386    3716    0       4.65    0.      0.      0.
         0.      0.      0.      0.      0.      0.
$ Referenced Material Records
$ Material Record : mat1.1
$ Description of Material :
MAT1*    1               1.05+7          3.94737+6       .33
*        .101
$ Material Record : mat1.2
$ Description of Material :
MAT1*    2               1.6+7           6.29921+6       .27
*        .16
$ Multipoint Constraints of the Entire Model
RBE2     2387    2654    123456  2162    2253    2344    2435    2526
         2604
$ Nodes of the Entire Model
GRID     2               14.6667 0.      10.
GRID     3               17.3333 0.      5.
GRID     4               20.     0.      0.
GRID     5               11.5911 3.10583 15.
GRID     6               14.1395 3.78325 10.
GRID     7               16.7701 4.49897 5.
GRID     8               19.3185 5.17639 0.
GRID     9               10.3923 6.      15.
GRID     10              12.6665 7.31304 10.
GRID     11              15.0463 8.68698 5.
GRID     12              17.3205 10.     0.
GRID     13              8.48528 8.48529 15.
GRID     14              10.3461 10.3536 10.
GRID     15              12.2813 12.2739 5.
GRID     16              14.1421 14.1422 0.
GRID     18              7.33333 12.7017 10.
GRID     19              8.66667 15.0111 5.
GRID     20              10.     17.3205 0.
GRID     25              3.10583 11.5911 15.
GRID     26              3.79337 14.1368 10.
GRID     27              4.48883 16.7728 5.
GRID     28              5.17637 19.3185 0.
GRID*    29                             -5.32468-6       12.
*        15.
GRID*    30                             -9.22076-6       14.6261
*        10.
GRID*    31                             -1.40598-5       17.3739
*        5.
GRID*    32                             -2.01097-5       20.
*        0.
GRID     33             -3.10584 11.5911 15.
GRID     34             -3.79339 14.1368 10.
GRID     35             -4.48886 16.7728 5.
GRID     36             -5.17641 19.3185 0.
GRID     38             -7.33333 12.7017 10.
GRID     39             -8.66667 15.0111 5.
GRID     40             -10.     17.3205 0.
GRID     45             -8.48528 8.48528 15.
GRID     46             -10.3461 10.3536 10.
GRID     47             -12.2813 12.2739 5.
GRID     48             -14.1421 14.1421 0.
GRID     49             -10.3923 6.      15.
GRID     50             -12.6665 7.31302 10.
GRID     51             -15.0463 8.68696 5.
GRID     52             -17.3205 9.99998 0.
GRID     53             -11.5911 3.10582 15.
GRID     54             -14.1395 3.78323 10.
GRID     55             -16.7701 4.49895 5.
GRID     56             -19.3185 5.17635 0.
GRID*    58                             -14.6667        -6.33673-7
*        10.
GRID*    59                             -17.3333        -5.47535-7
*        5.
GRID*    60                             -20.            -7.38255-7
*        0.
GRID     65             -11.5911-3.10583 15.
GRID     66             -14.1395-3.78325 10.
GRID     67             -16.7701-4.49898 5.
GRID     68             -19.3185-5.17639 0.
GRID     69             -10.3923-6.      15.
GRID     70             -12.6665-7.31304 10.
GRID     71             -15.0463-8.68698 5.
GRID     72             -17.3205-10.     0.
GRID     73             -8.48528-8.48529 15.
GRID     74             -10.3461-10.3536 10.
GRID     75             -12.2813-12.2739 5.
GRID     76             -14.1421-14.1422 0.
GRID     78             -7.33333-12.7017 10.
GRID     79             -8.66667-15.0111 5.
GRID     80             -10.    -17.3205 0.
GRID     85             -3.10583-11.5911 15.
GRID     86             -3.79337-14.1368 10.
GRID     87             -4.48883-16.7728 5.
GRID     88             -5.17637-19.3185 0.
GRID*    89                              3.82665-6      -12.
*        15.
GRID*    90                              8.30614-6      -14.6261
*        10.
GRID*    91                              1.29771-5      -17.3739
*        5.
GRID*    92                              2.01097-5      -20.
*        0.
GRID     93              3.10583-11.5911 15.
GRID     94              3.79338-14.1368 10.
GRID     95              4.48885-16.7728 5.
GRID     96              5.17641-19.3185 0.
GRID     98              7.33333-12.7017 10.
GRID     99              8.66667-15.0111 5.
GRID     100             10.    -17.3205 0.
GRID     105             8.48528-8.48528 15.
GRID     106             10.3462-10.3536 10.
GRID     107             12.2813-12.2739 5.
GRID     108             14.1422-14.1421 0.
GRID     109             10.3923-6.      15.
GRID     110             12.6665-7.31302 10.
GRID     111             15.0463-8.68696 5.
GRID     112             17.3205-9.99998 0.
GRID     113             11.5911-3.10582 15.
GRID     114             14.1395-3.78323 10.
GRID     115             16.7701-4.49894 5.
GRID     116             19.3185-5.17635 0.
GRID     126            -6.     -10.3923 20.
GRID     127            -3.10583-11.5911 20.
GRID*    128                             1.01612-5      -12.
*        20.
GRID     129             3.10584-11.5911 20.
GRID     130             6.     -10.3923 20.
GRID     131            -6.     -10.3923 25.
GRID     132            -3.10583-11.5911 25.
GRID*    133                             9.41215-6      -12.
*        25.
GRID     134             3.10584-11.5911 25.
GRID     135             6.     -10.3923 25.
GRID     136            -6.     -10.3923 30.
GRID     137            -3.10583-11.5911 30.
GRID*    138                             9.41215-6      -12.
*        30.
GRID     139             3.10584-11.5911 30.
GRID     140             6.     -10.3923 30.
GRID     141            -6.     -10.3923 35.
GRID     142            -3.10583-11.5911 35.
GRID*    143                             8.66313-6      -12.
*        35.
GRID     144             3.10584-11.5911 35.
GRID     145             6.     -10.3923 35.
GRID     146            -6.     -10.3923 40.
GRID     147            -3.10583-11.5911 40.
GRID*    148                             7.91412-6      -12.
*        40.
GRID     149             3.10584-11.5911 40.
GRID     150             6.     -10.3923 40.
GRID     151            -6.     -10.3923 45.
GRID     152            -3.10583-11.5911 45.
GRID*    153                             7.16511-6      -12.
*        45.
GRID     154             3.10584-11.5911 45.
GRID     155             6.     -10.3923 45.
GRID     156            -6.     -10.3923 50.
GRID     157            -3.10583-11.5911 50.
GRID*    158                             6.41609-6      -12.
*        50.
GRID     159             3.10584-11.5911 50.
GRID     160             6.     -10.3923 50.
GRID     161            -6.     -10.3923 55.
GRID     162            -3.10583-11.5911 55.
GRID*    163                             6.41609-6      -12.
*        55.
GRID     164             3.10584-11.5911 55.
GRID     165             6.     -10.3923 55.
GRID     166            -6.     -10.3923 60.
GRID     167            -3.10583-11.5911 60.
GRID*    168                             5.66708-6      -12.
*        60.
GRID     169             3.10584-11.5911 60.
GRID     170             6.     -10.3923 60.
GRID     171            -6.     -10.3923 65.
GRID     172            -3.10583-11.5911 65.
GRID*    173                             4.91806-6      -12.
*        65.
GRID     174             3.10584-11.5911 65.
GRID     175             6.     -10.3923 65.
GRID     176            -6.     -10.3923 70.
GRID     177            -3.10583-11.5911 70.
GRID*    178                             4.54356-6      -12.
*        70.
GRID     179             3.10583-11.5911 70.
GRID     180             6.     -10.3923 70.
GRID     181            -6.     -10.3923 75.
GRID     182            -3.10583-11.5911 75.
GRID*    183                             3.79454-6      -12.
*        75.
GRID     184             3.10583-11.5911 75.
GRID     185             6.     -10.3923 75.
GRID     192             8.48529-8.48528 20.
GRID     193             10.3923-6.      20.
GRID     194             11.5911-3.10582 20.
GRID*    195                             12.            -1.20583-6
*        20.
GRID     197             8.48529-8.48528 25.
GRID     198             10.3923-6.      25.
GRID     199             11.5911-3.10582 25.
GRID*    200                             12.            -1.20583-6
*        25.
GRID     202             8.48529-8.48528 30.
GRID     203             10.3923-6.      30.
GRID     204             11.5911-3.10582 30.
GRID*    205                             12.            -1.20583-6
*        30.
GRID     207             8.48529-8.48528 35.
GRID     208             10.3923-6.      35.
GRID     209             11.5911-3.10582 35.
GRID*    210                             12.            -1.20583-6
*        35.
GRID*    434                             12.            -1.20583-6
*        75.
GRID     651             6.      10.3923 75.
GRID     868            -6.      10.3923 75.
GRID*    1085                           -12.             1.20583-6
*        75.
GRID     1849            0.      0.      75.
GRID*    2162                            12.            -1.10259-6
*        15.
GRID     2253            6.      10.3923 15.
GRID     2344           -6.      10.3923 15.
GRID*    2435                           -12.             1.10259-6
*        15.
GRID     2526           -6.     -10.3923 15.
GRID     2604            6.     -10.3923 15.
GRID     2654            0.      0.      15.
GRID     2656            8.48528-8.48528 40.
GRID     2657            10.3923-6.      40.
GRID     2658            11.5911-3.10582 40.
GRID*    2659                            12.            -1.20583-6
*        40.
GRID     2661            8.48528-8.48528 45.
GRID     2662            10.3923-6.      45.
GRID     2663            11.5911-3.10582 45.
GRID*    2664                            12.            -1.20583-6
*        45.
GRID     2666            8.48528-8.48528 50.
GRID     2667            10.3923-6.      50.
GRID     2668            11.5911-3.10582 50.
GRID*    2669                            12.            -1.20583-6
*        50.
GRID     2671            8.48528-8.48528 55.
GRID     2672            10.3923-6.      55.
GRID     2673            11.5911-3.10582 55.
GRID*    2674                            12.            -1.20583-6
*        55.
GRID     2676            8.48528-8.48528 60.
GRID     2677            10.3923-6.      60.
GRID     2678            11.5911-3.10582 60.
GRID*    2679                            12.            -1.20583-6
*        60.
GRID     2681            8.48528-8.48528 65.
GRID     2682            10.3923-6.      65.
GRID     2683            11.5911-3.10582 65.
GRID*    2684                            12.            -1.20583-6
*        65.
GRID     2686            8.48528-8.48528 70.
GRID     2687            10.3923-6.      70.
GRID     2688            11.5911-3.10582 70.
GRID*    2689                            12.            -1.20583-6
*        70.
GRID     2691            8.48528-8.48528 75.
GRID     2692            10.3923-6.      75.
GRID     2693            11.5911-3.10582 75.
GRID     2701            11.5911 3.10583 20.
GRID     2702            10.3923 6.00001 20.
GRID     2703            8.48528 8.48529 20.
GRID     2704            6.      10.3923 20.
GRID     2706            11.5911 3.10583 25.
GRID     2707            10.3923 6.00001 25.
GRID     2708            8.48528 8.48529 25.
GRID     2709            6.      10.3923 25.
GRID     2711            11.5911 3.10583 30.
GRID     2712            10.3923 6.00001 30.
GRID     2713            8.48528 8.48529 30.
GRID     2714            6.      10.3923 30.
GRID     2716            11.5911 3.10583 35.
GRID     2717            10.3923 6.00001 35.
GRID     2718            8.48528 8.48529 35.
GRID     2719            6.      10.3923 35.
GRID     2721            11.5911 3.10583 40.
$ ... 31 like lines cut
GRID*    2767                           -9.86913-6       12.
*        20.
GRID     2768           -3.10584 11.5911 20.
GRID     2769           -6.      10.3923 20.
GRID     2771            3.10582 11.5911 25.
GRID*    2772                           -9.86913-6       12.
*        25.
GRID     2773           -3.10584 11.5911 25.
GRID     2774           -6.      10.3923 25.
GRID     2776            3.10582 11.5911 30.
GRID*    2777                           -9.12012-6       12.
*        30.
GRID     2778           -3.10584 11.5911 30.
GRID     2779           -6.      10.3923 30.
GRID     2781            3.10582 11.5911 35.
GRID*    2782                           -9.12012-6       12.
*        35.
GRID     2783           -3.10584 11.5911 35.
GRID     2784           -6.      10.3923 35.
GRID     2786            3.10582 11.5911 40.
GRID*    2787                           -8.3711-6        12.
*        40.
GRID     2788           -3.10584 11.5911 40.
GRID     2789           -6.      10.3923 40.
GRID     2791            3.10583 11.5911 45.
GRID*    2792                           -8.3711-6        12.
*        45.
GRID     2793           -3.10584 11.5911 45.
GRID     2794           -6.      10.3923 45.
GRID     2796            3.10583 11.5911 50.
GRID*    2797                           -8.3711-6        12.
*        50.
GRID     2798           -3.10584 11.5911 50.
GRID     2799           -6.      10.3923 50.
GRID     2801            3.10583 11.5911 55.
GRID*    2802                           -7.62209-6       12.
*        55.
GRID     2803           -3.10584 11.5911 55.
GRID     2804           -6.      10.3923 55.
GRID     2806            3.10583 11.5911 60.
GRID*    2807                           -7.62209-6       12.
*        60.
GRID     2808           -3.10584 11.5911 60.
GRID     2809           -6.      10.3923 60.
GRID     2811            3.10583 11.5911 65.
GRID*    2812                           -6.87307-6       12.
*        65.
GRID     2813           -3.10584 11.5911 65.
GRID     2814           -6.      10.3923 65.
GRID     2816            3.10583 11.5911 70.
GRID*    2817                           -6.87307-6       12.
*        70.
GRID     2818           -3.10584 11.5911 70.
GRID     2819           -6.      10.3923 70.
GRID     2821            3.10583 11.5911 75.
GRID*    2822                           -6.12406-6       12.
*        75.
GRID     2823           -3.10584 11.5911 75.
GRID     2831           -8.48529 8.48528 20.
GRID     2832           -10.3923 6.      20.
GRID     2833           -11.5911 3.10582 20.
GRID*    2834                           -12.             1.20583-6
*        20.
GRID     2836           -8.48529 8.48528 25.
GRID     2837           -10.3923 6.      25.
GRID     2838           -11.5911 3.10582 25.
GRID*    2839                           -12.             1.20583-6
*        25.
GRID     2841           -8.48529 8.48528 30.
GRID     2842           -10.3923 6.      30.
GRID     2843           -11.5911 3.10582 30.
GRID*    2844                           -12.             1.20583-6
*        30.
GRID     2846           -8.48529 8.48528 35.
GRID     2847           -10.3923 6.      35.
GRID     2848           -11.5911 3.10582 35.
GRID*    2849                           -12.             1.20583-6
*        35.
GRID     2851           -8.48529 8.48528 40.
GRID     2852           -10.3923 6.      40.
GRID     2853           -11.5911 3.10582 40.
GRID*    2854                           -12.             1.20583-6
*        40.
GRID     2856           -8.48529 8.48528 45.
GRID     2857           -10.3923 6.      45.
GRID     2858           -11.5911 3.10582 45.
GRID*    2859                           -12.             1.20583-6
*        45.
GRID     2861           -8.48529 8.48528 50.
GRID     2862           -10.3923 6.      50.
GRID     2863           -11.5911 3.10582 50.
GRID*    2864                           -12.             1.20583-6
*        50.
GRID     2866           -8.48528 8.48528 55.
GRID     2867           -10.3923 6.      55.
GRID     2868           -11.5911 3.10582 55.
GRID*    2869                           -12.             1.20583-6
*        55.
GRID     2871           -8.48528 8.48528 60.
GRID     2872           -10.3923 6.      60.
GRID     2873           -11.5911 3.10582 60.
GRID*    2874                           -12.             1.20583-6
*        60.
GRID     2876           -8.48528 8.48528 65.
GRID     2877           -10.3923 6.      65.
GRID     2878           -11.5911 3.10582 65.
GRID*    2879                           -12.             1.20583-6
*        65.
GRID     2881           -8.48528 8.48528 70.
GRID     2882           -10.3923 6.      70.
GRID     2883           -11.5911 3.10582 70.
GRID*    2884                           -12.             1.20583-6
*        70.
GRID     2886           -8.48528 8.48528 75.
GRID     2887           -10.3923 6.      75.
GRID     2888           -11.5911 3.10582 75.
GRID     2896           -11.5911-3.10583 20.
GRID     2897           -10.3923-6.00001 20.
GRID     2898           -8.48528-8.48529 20.
GRID     2901           -11.5911-3.10583 25.
GRID     2902           -10.3923-6.00001 25.
GRID     2903           -8.48528-8.48529 25.
GRID     2906           -11.5911-3.10583 30.
GRID     2907           -10.3923-6.00001 30.
GRID     2908           -8.48528-8.48529 30.
GRID     2911           -11.5911-3.10583 35.
GRID     2912           -10.3923-6.00001 35.
GRID     2913           -8.48528-8.48529 35.
GRID     2916           -11.5911-3.10583 40.
GRID     2917           -10.3923-6.00001 40.
GRID     2918           -8.48528-8.48529 40.
GRID     2921           -11.5911-3.10583 45.
GRID     2922           -10.3923-6.00001 45.
$ ... 39 like lines cut
GRID*    2980                            16.8            1.87994-6
*        15.
GRID*    2981                            21.6            1.3596-6
*        15.
GRID*    2982                            26.4            7.38547-7
*        15.
GRID*    2983                            31.2            2.18207-7
*        15.
GRID     2984            36.     0.      15.
GRID     2992            15.6262 4.06834 15.
GRID     2993            19.5813 4.99361 15.
GRID     2994            23.5098 5.90646 15.
GRID     2995            27.465  6.83173 15.
GRID     2996            31.5    7.79423 15.
GRID     2998            13.7822 7.95717 15.
GRID     2999            17.0696 9.85513 15.
GRID     3000            20.3227 11.7334 15.
GRID     3001            23.6101 13.6313 15.
GRID     3002            27.     15.5885 15.
GRID     3004            11.3364 11.4985 15.
GRID     3005            14.1152 14.4611 15.
GRID     3006            16.8701 17.4069 15.
GRID     3007            19.6489 20.3695 15.
GRID     3008            22.5    23.3827 15.
GRID     3010            8.4     14.5492 15.
GRID     3011            10.8    18.7062 15.
GRID     3012            13.2    22.8631 15.
GRID     3013            15.6    27.02   15.
$ ... 6 like lines cut
GRID*    3028                           -1.07302-5       15.9143
*        15.
GRID*    3029                           -9.28418-6       19.7102
*        15.
GRID*    3030                           -7.70989-6       23.4667
*        15.
GRID*    3031                           -3.20248-6       27.2626
*        15.
GRID*    3032                            7.12763-7       31.1769
*        15.
GRID     3034           -4.28981 15.5668 15.
GRID     3035           -5.46607 19.4547 15.
GRID     3036           -6.63977 23.3133 15.
GRID     3037           -7.81604 27.2012 15.
GRID     3038           -9.      31.1769 15.
GRID     3040           -8.4     14.5492 15.
GRID     3041           -10.8    18.7062 15.
GRID     3042           -13.2    22.8631 15.
GRID     3043           -15.6    27.02   15.
GRID     3044           -18.     31.1769 15.
GRID     3052           -11.3364 11.4985 15.
GRID     3053           -14.1152 14.4611 15.
GRID     3054           -16.8701 17.4069 15.
GRID     3055           -19.6489 20.3695 15.
GRID     3056           -22.5    23.3827 15.
GRID     3058           -13.7822 7.95716 15.
GRID     3059           -17.0696 9.85511 15.
GRID     3060           -20.3227 11.7333 15.
GRID     3061           -23.6101 13.6313 15.
GRID     3062           -27.     15.5885 15.
$ ... 5 like lines cut
GRID*    3070                           -16.8           -1.4711-6
*        15.
GRID*    3071                           -21.6           -8.33943-7
*        15.
GRID*    3072                           -26.4           -9.60788-8
*        15.
GRID*    3073                           -31.2            5.41074-7
*        15.
GRID*    3074                           -36.             8.76094-7
*        15.
GRID     3082           -15.6262-4.06833 15.
GRID     3083           -19.5813-4.9936  15.
GRID     3084           -23.5098-5.90646 15.
GRID     3085           -27.465 -6.83172 15.
GRID     3086           -31.5   -7.79422 15.
GRID     3088           -13.7822-7.95717 15.
GRID     3089           -17.0696-9.85512 15.
GRID     3090           -20.3227-11.7333 15.
GRID     3091           -23.6101-13.6313 15.
GRID     3092           -27.    -15.5885 15.
GRID     3094           -11.3364-11.4985 15.
GRID     3095           -14.1152-14.4611 15.
GRID     3096           -16.8701-17.4069 15.
GRID     3097           -19.6489-20.3695 15.
GRID     3098           -22.5   -23.3827 15.
GRID     3100           -8.4    -14.5492 15.
GRID     3101           -10.8   -18.7062 15.
GRID     3102           -13.2   -22.8631 15.
GRID     3103           -15.6   -27.02   15.
GRID     3104           -18.    -31.1769 15.
$ ... 5 like lines cut
GRID*    3118                            9.84521-6      -15.9143
*        15.
GRID*    3119                            8.18806-6      -19.7102
*        15.
GRID*    3120                            6.40487-6      -23.4667
*        15.
GRID*    3121                            1.68635-6      -27.2626
*        15.
GRID*    3122                           -2.44657-6      -31.1769
*        15.
GRID     3124            4.28981-15.5668 15.
GRID     3125            5.46608-19.4547 15.
GRID     3126            6.63978-23.3133 15.
GRID     3127            7.81604-27.2012 15.
GRID     3128            9.     -31.1769 15.
GRID     3136           -1.5    -2.59808 15.
GRID     3137           -3.     -5.19615 15.
GRID     3138           -4.5    -7.79423 15.
GRID     3141           -2.21598-8.81895 15.
GRID     3142           -1.29361-6.52371 15.
GRID*    3144                            .00696539      -4.56256
*        15.
GRID*    3145                            .0121035       -9.27994
*        15.
GRID*    3146                            .0132721       -7.44442
*        15.
GRID     3147            1.31435-6.50305 15.
GRID     3148            2.23308-8.79208 15.
GRID     3150            1.5    -2.59808 15.
GRID     3151            3.     -5.19615 15.
GRID     3152            4.5    -7.79423 15.
GRID     3160            6.52944-6.32857 15.
GRID     3161            5.0029 -4.38215 15.
GRID     3163            3.95478-2.27525 15.
GRID     3164            8.04272-4.62949 15.
GRID     3165            6.45369-3.71072 15.
GRID     3166            6.28898-2.11327 15.
GRID     3167            8.7307 -2.46215 15.
GRID*    3169                            3.             -3.23564-7
*        15.
GRID*    3170                            6.             -6.41629-7
*        15.
GRID*    3171                            9.             -9.40337-7
*        15.
GRID     3179            8.74542 2.49038 15.
GRID     3180            6.29651 2.14156 15.
GRID     3182            3.94781 2.28731 15.
GRID     3183            8.03062 4.65045 15.
GRID     3184            6.44042 3.7337  15.
GRID     3185            4.97463 4.38978 15.
GRID     3186            6.49763 6.32994 15.
GRID     3188            1.5     2.59808 15.
GRID     3189            3.      5.19615 15.
GRID     3190            4.5     7.79423 15.
GRID     3198            2.21598 8.81895 15.
GRID     3199            1.29361 6.52371 15.
GRID*    3201                           -.00696499       4.56256
*        15.
GRID*    3202                           -.0121027        9.27994
*        15.
GRID*    3203                           -.0132715        7.44442
*        15.
GRID     3204           -1.31435 6.50305 15.
GRID     3205           -2.23307 8.79208 15.
GRID     3207           -1.5     2.59808 15.
GRID     3208           -3.      5.19615 15.
GRID     3209           -4.5     7.79423 15.
GRID     3217           -6.52944 6.32857 15.
GRID     3218           -5.0029  4.38215 15.
GRID     3220           -3.95478 2.27525 15.
GRID     3221           -8.04272 4.62949 15.
GRID     3222           -6.45369 3.71072 15.
GRID     3223           -6.28898 2.11327 15.
GRID     3224           -8.7307  2.46215 15.
GRID*    3226                           -3.              3.23564-7
*        15.
GRID*    3227                           -6.              6.41629-7
*        15.
GRID*    3228                           -9.              9.40337-7
*        15.
GRID     3236           -8.74542-2.49038 15.
GRID     3237           -6.29651-2.14156 15.
GRID     3239           -3.94781-2.28731 15.
GRID     3240           -8.03062-4.65045 15.
GRID     3241           -6.44042-3.7337  15.
GRID     3242           -4.97463-4.38978 15.
GRID     3243           -6.49763-6.32994 15.
GRID     3263            16.8    0.      20.
GRID     3264            16.8    0.      25.
GRID     3265            16.8    0.      30.
GRID     3266            16.8    0.      35.
GRID     3267            16.8    0.      40.
GRID     3268            16.8    0.      45.
GRID     3269            16.8    0.      50.
GRID     3270            16.8    0.      55.
GRID     3271            16.8    0.      60.
GRID     3272            16.8    0.      65.
GRID     3273            16.8    0.      70.
GRID     3274            16.8    0.      75.
GRID     3276            21.6    0.      20.
$ ... 167 like lines cut
GRID*    3497                           -16.8            4.08844-7
*        20.
GRID*    3498                           -16.8            4.08844-7
*        25.
GRID*    3499                           -16.8            4.08844-7
*        30.
GRID*    3500                           -16.8            4.08844-7
*        35.
GRID*    3501                           -16.8            4.08844-7
*        40.
GRID*    3502                           -16.8            4.08844-7
*        45.
GRID*    3503                           -16.8            4.08844-7
*        50.
GRID*    3504                           -16.8            4.08844-7
*        55.
GRID*    3505                           -16.8            4.08844-7
*        60.
GRID*    3506                           -16.8            4.08844-7
*        65.
GRID*    3507                           -16.8            4.08844-7
*        70.
GRID*    3508                           -16.8            4.08844-7
*        75.
GRID*    3510                           -21.6            5.25656-7
*        20.
GRID*    3511                           -21.6            5.25656-7
*        25.
GRID*    3512                           -21.6            5.25656-7
*        30.
GRID*    3513                           -21.6            5.25656-7
*        35.
GRID*    3514                           -21.6            5.25656-7
*        40.
GRID*    3515                           -21.6            5.25656-7
*        45.
GRID*    3516                           -21.6            5.25656-7
*        50.
GRID*    3517                           -21.6            5.25656-7
*        55.
$ ... 80 like lines cut
GRID     3575           -8.4    -14.5492 20.
GRID     3576           -8.4    -14.5492 25.
GRID     3577           -8.4    -14.5492 30.
GRID     3578           -8.4    -14.5492 35.
GRID     3579           -8.4    -14.5492 40.
GRID     3580           -8.4    -14.5492 45.
GRID     3581           -8.4    -14.5492 50.
GRID     3582           -8.4    -14.5492 55.
GRID     3583           -8.4    -14.5492 60.
GRID     3584           -8.4    -14.5492 65.
GRID     3585           -8.4    -14.5492 70.
GRID     3586           -8.4    -14.5492 75.
GRID     3588           -10.8   -18.7062 20.
GRID     3589           -10.8   -18.7062 25.
GRID     3590           -10.8   -18.7062 30.
GRID     3591           -10.8   -18.7062 35.
GRID     3592           -10.8   -18.7062 40.
GRID     3593           -10.8   -18.7062 45.
GRID     3594           -10.8   -18.7062 50.
GRID     3595           -10.8   -18.7062 55.
$ ... 135 like lines cut
GRID*    3790                           -6.61021-6       15.9143
*        75.
GRID*    3791                           -5.35887-6       19.7102
*        75.
GRID*    3792                           -4.5374-6        23.4667
*        75.
GRID*    3793                           -1.33775-6       27.2626
*        75.
GRID*    3794                            7.12763-7       31.1769
*        75.
GRID     3796           -4.28981 15.5668 75.
GRID     3797           -5.46607 19.4547 75.
GRID     3798           -6.63977 23.3133 75.
GRID     3799           -7.81604 27.2012 75.
GRID     3800           -9.      31.1769 75.
GRID     3814           -11.3364 11.4985 75.
GRID     3815           -14.1152 14.4611 75.
GRID     3816           -16.8701 17.4069 75.
GRID     3817           -19.6489 20.3695 75.
GRID     3818           -22.5    23.3827 75.
GRID     3820           -13.7822 7.95716 75.
GRID     3821           -17.0696 9.85512 75.
GRID     3822           -20.3227 11.7333 75.
GRID     3823           -23.6101 13.6313 75.
GRID     3824           -27.     15.5885 75.
GRID     3826           -15.6262 4.06833 75.
GRID     3827           -19.5813 4.9936  75.
GRID     3828           -23.5098 5.90646 75.
GRID     3829           -27.465  6.83173 75.
GRID     3830           -31.5    7.79423 75.
$ ... 20 like lines cut
GRID*    3880                            5.72518-6      -15.9143
*        75.
GRID*    3881                            4.26275-6      -19.7102
*        75.
GRID*    3882                            3.23238-6      -23.4667
*        75.
GRID*    3883                           -1.78372-7      -27.2626
*        75.
GRID*    3884                           -2.44657-6      -31.1769
*        75.
GRID     3886            4.28981-15.5668 75.
GRID     3887            5.46607-19.4547 75.
GRID     3888            6.63977-23.3133 75.
GRID     3889            7.81604-27.2012 75.
GRID     3890            9.     -31.1769 75.
GRID     3898            1.5     2.59808 75.
GRID     3899            3.      5.19615 75.
GRID     3900            4.5     7.79423 75.
GRID     3903            2.21561 8.81903 75.
GRID     3904            1.29352 6.52374 75.
GRID*    3906                           -.00698822       4.56257
*        75.
GRID*    3907                           -.0121955        9.27996
*        75.
GRID*    3908                           -.0133335        7.44444
*        75.
GRID     3909           -1.31437 6.50305 75.
GRID     3910           -2.23276 8.79217 75.
GRID     3912           -1.5     2.59808 75.
GRID     3913           -3.      5.19615 75.
GRID     3914           -4.5     7.79423 75.
GRID     3917            3.      3.828-7 75.
GRID*    3918                            6.              7.46013-7
*        75.
GRID*    3919                            9.              1.10923-6
*        75.
GRID     3922            8.74531 2.49074 75.
GRID     3923            6.29648 2.14165 75.
GRID     3925            3.94781 2.28734 75.
GRID     3926            8.03059 4.65054 75.
GRID     3927            6.4404  3.73377 75.
GRID     3928            4.97463 4.3898  75.
GRID     3929            6.49787 6.32971 75.
GRID     3936            1.5    -2.59808 75.
GRID     3937            3.     -5.19615 75.
GRID     3938            4.5    -7.79423 75.
GRID     3941            6.5297 -6.32829 75.
GRID     3942            5.00296-4.38208 75.
GRID     3944            3.9548 -2.27523 75.
GRID     3945            8.04278-4.62942 75.
GRID     3946            6.45374-3.71067 75.
GRID     3947            6.28899-2.11325 75.
GRID     3948            8.73062-2.46246 75.
GRID     3955           -1.5    -2.59808 75.
GRID     3956           -3.     -5.19615 75.
GRID     3957           -4.5    -7.79423 75.
GRID     3960           -2.21561-8.81903 75.
GRID     3961           -1.29352-6.52374 75.
GRID*    3963                            .00698833      -4.56257
*        75.
GRID*    3964                            .0121957       -9.27996
*        75.
GRID*    3965                            .0133341       -7.44444
*        75.
GRID     3966            1.31437-6.50305 75.
GRID     3967            2.23276-8.79217 75.
GRID*    3974                           -3.             -2.15964-7
*        75.
GRID*    3975                           -6.             -4.12342-7
*        75.
GRID*    3976                           -9.             -6.0872-7
*        75.
GRID     3979           -8.74531-2.49074 75.
GRID     3980           -6.29648-2.14165 75.
GRID     3982           -3.94781-2.28734 75.
GRID     3983           -8.03059-4.65054 75.
GRID     3984           -6.4404 -3.73376 75.
GRID     3985           -4.97463-4.3898  75.
GRID     3986           -6.49787-6.32971 75.
GRID     3998           -6.5297  6.32829 75.
GRID     3999           -5.00296 4.38208 75.
GRID     4001           -3.9548  2.27523 75.
GRID     4002           -8.04278 4.62942 75.
GRID     4003           -6.45374 3.71067 75.
GRID     4004           -6.28899 2.11325 75.
GRID     4005           -8.73062 2.46246 75.
$
$ Displacement Constraints of Load Set : spc1.1
SPC1     1       123     4       8       12      16      20      28
         32      36      40      48      52      56      60      68
         72      76      80      88      92      96      100     108
         112     116
$ Referenced Coordinate Frames

$
$
FREQ     1       20.     40.     65.     80.     100.
FREQ1    1       5.0     5.0     19
FREQ4    1       5.0     100.    0.02    3
$
$
TABDMP1  1       CRIT
        1.      .02     100.    .02      ENDT
$
$
EIGRL,1,,200.
$
$ define the enforced acceleration for the Lateral case (DOF 1)
DLOAD    3       1.      1.      95      1.      98      1.      911
         1.      914     1.      917     1.      920     1.      923
         1.      926     1.      929     1.      932     1.      935
         1.      938     1.      941     1.      944     1.      947
         1.      950     1.      953     1.      956     1.      959
         1.      962     1.      965     1.      968     1.      971
         1.      974
$
RLOAD1   95      96                      1               ACCE
SPCD     96      4       1       1.
RLOAD1   98      99                      1               ACCE
SPCD     99      8       1       1.
RLOAD1   911     912                     1               ACCE
SPCD     912     12      1       1.
RLOAD1   914     915                     1               ACCE
SPCD     915     16      1       1.
RLOAD1   917     918                     1               ACCE
SPCD     918     20      1       1.
RLOAD1   920     921                     1               ACCE
SPCD     921     28      1       1.
RLOAD1   923     924                     1               ACCE
SPCD     924     32      1       1.
RLOAD1   926     927                     1               ACCE
SPCD     927     36      1       1.
RLOAD1   929     930                     1               ACCE
SPCD     930     40      1       1.
RLOAD1   932     933                     1               ACCE
SPCD     933     48      1       1.
RLOAD1   935     936                     1               ACCE
SPCD     936     52      1       1.
RLOAD1   938     939                     1               ACCE
SPCD     939     56      1       1.
RLOAD1   941     942                     1               ACCE
SPCD     942     60      1       1.
RLOAD1   944     945                     1               ACCE
SPCD     945     68      1       1.
RLOAD1   947     948                     1               ACCE
SPCD     948     72      1       1.
RLOAD1   950     951                     1               ACCE
SPCD     951     76      1       1.
RLOAD1   953     954                     1               ACCE
SPCD     954     80      1       1.
RLOAD1   956     957                     1               ACCE
SPCD     957     88      1       1.
RLOAD1   959     960                     1               ACCE
SPCD     960     92      1       1.
RLOAD1   962     963                     1               ACCE
SPCD     963     96      1       1.
$ ... 8 like lines cut
$
$ define the enforced acceleration for the Vertical case (DOF 3)
DLOAD    30     1.      1.       5      1.       8      1.       11
        1.       14     1.       17     1.       20     1.       23
        1.       26     1.       29     1.       32     1.       35
        1.       38     1.       41     1.       44     1.       47
        1.       50     1.       53     1.       56     1.       59
        1.       62     1.       65     1.       68     1.       71
        1.       74
RLOAD1   5       6                       1               ACCE
SPCD     6       4       3      1.
RLOAD1   8       9                       1               ACCE
SPCD     9       8       3      1.
RLOAD1   11      12                      1               ACCE
SPCD     12      12      3      1.
RLOAD1   14      15                      1               ACCE
SPCD     15      16      3      1.
RLOAD1   17      18                      1               ACCE
SPCD     18      20      3      1.
RLOAD1   20      21                      1               ACCE
SPCD     21      28      3      1.
RLOAD1   23      24                      1               ACCE
SPCD     24      32      3      1.
RLOAD1   26      27                      1               ACCE
SPCD     27      36      3      1.
RLOAD1   29      30                      1               ACCE
SPCD     30      40      3      1.
RLOAD1   32      33                      1               ACCE
SPCD     33      48      3      1.
RLOAD1   35      36                      1               ACCE
SPCD     36      52      3      1.
RLOAD1   38      39                      1               ACCE
SPCD     39      56      3      1.
RLOAD1   41      42                      1               ACCE
SPCD     42      60      3      1.
RLOAD1   44      45                      1               ACCE
SPCD     45      68      3      1.
RLOAD1   47      48                      1               ACCE
SPCD     48      72      3      1.
RLOAD1   50      51                      1               ACCE
SPCD     51      76      3      1.
RLOAD1   53      54                      1               ACCE
SPCD     54      80      3      1.
RLOAD1   56      57                      1               ACCE
SPCD     57      88      3      1.
RLOAD1   59      60                      1               ACCE
SPCD     60      92      3      1.
RLOAD1   62      63                      1               ACCE
SPCD     63      96      3      1.
$ ... 8 like lines cut
$ 
$ Frequency dependent magnitude- unit across all frequencies
TABLED1  1
        1.      1.      100.    1.       ENDT
$
$ SPECIFY SPECTRAL DENSITY
$
$ Lateral Case
RANDPS, 900, 1, 1, 1., 0., 999
$ Vertical Case
RANDPS, 900, 2, 2, 1., 0., 999
RANDT1  900     4       0.0     0.4
$ input PSD defined in inch-based units
$TABRND1, 999, LOG, LOG
$, 20., 5972.2, 40., 5972.2, 65., 11944.4, 80., 11944.4,
$, 100., 2986.1, ENDT
$
$ input PSD defined in G-based units
TABRND1, 999, LOG, LOG
, 20., 0.04, 40., 0.04, 65., 0.08, 80., 0.08,
, 100., 0.02, ENDT
$
$
PARAM,POST,-1
ENDDATA
ENDDATA
