ID MSC, RS321H   $ HDL V69 18-JUN-1996
$ID     RSSCON, TEST12
SOL    101  $ V66 - Static Analysis
TIME   5
CEND
TITLE = MSC/NASTRAN  -----  MSC/XL                             RS321H
SUBTITLE = STATICS CASE CONTROL
LABEL = DEFAULT SUBCASE STRUCTURE
ECHO = NONE
SET 2 = 1013,1019,1009 THRU 1012,2013,2019,2009 THRU 2012
SET 3 = 1013,1019,2013,2019
DISP = ALL
STRESS = 2
FORCE = 3
STRAIN = 2
ESE = 2
  SPC = 1
  LOAD = 1
BEGIN BULK
$PARAM   POST    0
PARAM   AUTOSPC YES
PARAM   PRGPST  NO
$
$ THIS SECTION CONTAINS BULK DATA FOR SE 0
$
$
GRID    1001    0       0.0     0.0     0.0     0                       
GRID    1002    0       .25     0.0     0.0     0                       
GRID    1003    0       .5      0.0     0.0     0                       
GRID    1004    0       .75     0.0     0.0     0                       
GRID    1005    0       1.      0.0     0.0     0                       
GRID    1006    0       0.0     .05     0.0     0                       
GRID    1007    0       .5      .05     0.0     0                       
GRID    1008    0       1.      .05     0.0     0                       
GRID    1009    0       0.0     .1      0.0     0                       
GRID    1010    0       .25     .1      0.0     0                       
GRID    1011    0       .5      .1      0.0     0                       
GRID    1012    0       .75     .1      0.0     0                       
GRID    1013    0       1.      .1      0.0     0                       
GRID    1014    0       0.0     .15     0.0     0                       
GRID    1015    0       .5      .15     0.0     0                       
GRID    1016    0       1.      .15     0.0     0                       
GRID    1017    0       0.0     .2      0.0     0                       
GRID    1018    0       .25     .2      0.0     0                       
GRID    1019    0       .5      .2      0.0     0                       
GRID    1020    0       .75     .2      0.0     0                       
$ ... 303 like lines cut
$
RSSCON  1998    ELEM    1013    1011
RSSCON  1999    ELEM    1019    1012
RSSCON  2998    ELEM    2013    2011
RSSCON  2999    ELEM    2019    2012
$
$RSSCON  1998    ELEM    1013    1009
$RSSCON  1999    ELEM    1019    1010
$RSSCON  2998    ELEM    2013    2009
$RSSCON  2999    ELEM    2019    2010
$
$RSSCON  1998    GRID    1112    1099    1107    1132    1101    1109
$RSSCON  1999    GRID    1132    1101    1109    1152    1103    1111
$RSSCON  2998    GRID    2099    2099    2107    2101    2101    2109
$RSSCON  2999    GRID    2101    2101    2109    2103    2103    2111
$
CQUAD8  1013    1       1112    1114    1134    1132    1113    1126    +
+       1133    1125    
CQUAD8  1014    1       1114    1116    1136    1134    1115    1127    +
+       1135    1126    
CQUAD8  1015    1       1116    1118    1138    1136    1117    1128    +
+       1137    1127    
CQUAD8  1016    1       1118    1120    1140    1138    1119    1129    +
+       1139    1128    
CQUAD8  1017    1       1120    1122    1142    1140    1121    1130    +
+       1141    1129    
CQUAD8  1018    1       1122    1124    1144    1142    1123    1131    +
+       1143    1130    
CQUAD8  1019    1       1132    1134    1154    1152    1133    1146    +
+       1153    1145    
CQUAD8  1020    1       1134    1136    1156    1154    1135    1147    +
+       1155    1146    
CQUAD8  1021    1       1136    1138    1158    1156    1137    1148    +
+       1157    1147    
CQUAD8  1022    1       1138    1140    1160    1158    1139    1149    +
+       1159    1148    
CQUAD8  1023    1       1140    1142    1162    1160    1141    1150    +
+       1161    1149    
CQUAD8  1024    1       1142    1144    1164    1162    1143    1151    +
+       1163    1150    
CQUAD8  2013    1       2099    2114    2134    2101    2113    2126    +
+       2133    2100    
CQUAD8  2014    1       2114    2116    2136    2134    2115    2127    +
+       2135    2126    
CQUAD8  2015    1       2116    2118    2138    2136    2117    2128    +
+       2137    2127    
CQUAD8  2016    1       2118    2120    2140    2138    2119    2129    +
+       2139    2128    
CQUAD8  2017    1       2120    2122    2142    2140    2121    2130    +
+       2141    2129    
CQUAD8  2018    1       2122    2124    2144    2142    2123    2131    +
+       2143    2130    
CQUAD8  2019    1       2101    2134    2154    2103    2133    2146    +
+       2153    2102    
CQUAD8  2020    1       2134    2136    2156    2154    2135    2147    +
+       2155    2146    
$ ... 8 like lines cut
$
CHEXA   1001    1       1001    1031    1033    1003    1009    1039    +
+       1041    1011    1022    1032    1023    1002    1006    1036    +
+       1037    1007    1025    1040    1026    1010    
CHEXA   1002    1       1003    1033    1035    1005    1011    1041    +
+       1043    1013    1023    1034    1024    1004    1007    1037    +
+       1038    1008    1026    1042    1027    1012    
CHEXA   1003    1       1009    1039    1041    1011    1017    1047    +
+       1049    1019    1025    1040    1026    1010    1014    1044    +
+       1045    1015    1028    1048    1029    1018    
CHEXA   1004    1       1011    1041    1043    1013    1019    1049    +
+       1051    1021    1026    1042    1027    1012    1015    1045    +
+       1046    1016    1029    1050    1030    1020    
CHEXA   1005    1       1031    1061    1063    1033    1039    1069    +
+       1071    1041    1052    1062    1053    1032    1036    1066    +
+       1067    1037    1055    1070    1056    1040    
CHEXA   1006    1       1033    1063    1065    1035    1041    1071    +
+       1073    1043    1053    1064    1054    1034    1037    1067    +
+       1068    1038    1056    1072    1057    1042    
CHEXA   1007    1       1039    1069    1071    1041    1047    1077    +
+       1079    1049    1055    1070    1056    1040    1044    1074    +
+       1075    1045    1058    1078    1059    1048    
CHEXA   1008    1       1041    1071    1073    1043    1049    1079    +
+       1081    1051    1056    1072    1057    1042    1045    1075    +
+       1076    1046    1059    1080    1060    1050    
CHEXA   1009    1       1061    1091    1093    1063    1069    1099    +
+       1101    1071    1082    1092    1083    1062    1066    1096    +
+       1097    1067    1085    1100    1086    1070    
CHEXA   1010    1       1063    1093    1095    1065    1071    1101    +
+       1103    1073    1083    1094    1084    1064    1067    1097    +
+       1098    1068    1086    1102    1087    1072    
CHEXA   1011    1       1069    1099    1101    1071    1077    1107    +
+       1109    1079    1085    1100    1086    1070    1074    1104    +
+       1105    1075    1088    1108    1089    1078    
CHEXA   1012    1       1071    1101    1103    1073    1079    1109    +
+       1111    1081    1086    1102    1087    1072    1075    1105    +
+       1106    1076    1089    1110    1090    1080    
CHEXA   2001    1       2001    2031    2033    2003    2009    2039    +
+       2041    2011    2022    2032    2023    2002    2006    2036    +
+       2037    2007    2025    2040    2026    2010    
CHEXA   2002    1       2003    2033    2035    2005    2011    2041    +
+       2043    2013    2023    2034    2024    2004    2007    2037    +
+       2038    2008    2026    2042    2027    2012    
CHEXA   2003    1       2009    2039    2041    2011    2017    2047    +
+       2049    2019    2025    2040    2026    2010    2014    2044    +
+       2045    2015    2028    2048    2029    2018    
CHEXA   2004    1       2011    2041    2043    2013    2019    2049    +
+       2051    2021    2026    2042    2027    2012    2015    2045    +
+       2046    2016    2029    2050    2030    2020    
CHEXA   2005    1       2031    2061    2063    2033    2039    2069    +
+       2071    2041    2052    2062    2053    2032    2036    2066    +
+       2067    2037    2055    2070    2056    2040    
CHEXA   2006    1       2033    2063    2065    2035    2041    2071    +
+       2073    2043    2053    2064    2054    2034    2037    2067    +
+       2068    2038    2056    2072    2057    2042    
CHEXA   2007    1       2039    2069    2071    2041    2047    2077    +
+       2079    2049    2055    2070    2056    2040    2044    2074    +
+       2075    2045    2058    2078    2059    2048    
CHEXA   2008    1       2041    2071    2073    2043    2049    2079    +
+       2081    2051    2056    2072    2057    2042    2045    2075    +
+       2076    2046    2059    2080    2060    2050    
$ ... 12 like lines cut
$
$ THIS SECTION CONTAINS THE LOADS, CONSTRAINTS, AND CONTROL BULK DATA ENTRIES
$
$
FORCE   1       1124    0       1.              -1.             
FORCE   1       1164    0       1.              -1.             
FORCE   1       1144    0       2.              -1.             
FORCE   1       2124    0       1.              -1.             
FORCE   1       2164    0       1.              -1.             
FORCE   1       2144    0       2.              -1.             
$
SPC     1       1001    123456  0.0     
SPC     1       1002    123456  0.0     
SPC     1       1003    123456  0.0     
SPC     1       1004    123456  0.0     
SPC     1       1005    123456  0.0     
SPC     1       1006    123456  0.0     
SPC     1       1007    123456  0.0     
SPC     1       1008    123456  0.0     
SPC     1       1009    123456  0.0     
SPC     1       1010    123456  0.0     
SPC     1       1011    123456  0.0     
SPC     1       1012    123456  0.0     
SPC     1       1013    123456  0.0     
SPC     1       1014    123456  0.0     
SPC     1       1015    123456  0.0     
SPC     1       1016    123456  0.0     
SPC     1       1017    123456  0.0     
SPC     1       1018    123456  0.0     
SPC     1       1019    123456  0.0     
SPC     1       1020    123456  0.0     
$ ... 22 like lines cut
$
$
$ THIS SECTION CONTAINS THE PROPERTY AND MATERIAL BULK DATA ENTRIES
$
$
PSHELL  1       1       .2      1               1                       
$
PSOLID  1       1                       GRID            SMECH   
$
MAT1    1       3.+7            .3                                      
PARAM,POST,-1
ENDDATA
ENDDATA
