id msc, sdbush10.dat $ dvw v2002 21-oct-2001
SOL	108 $ STATIC ANALYSIS 
CEND
  DISPL = ALL
  FORCE = ALL
  LOAD  = 85
  DLOAD = 185
  FREQ = 120
  SPC = 10
param,shldamp,diff
BEGIN BULK
GRID    10001           0.      0.                      123456
GRID    10002           10.     0.        
GRID    10003           10.     10.        
GRID    10004           0.      10.                     123456
CQUAD4  1234    50      10001   10002   10003   10004     
PSHELL  50      51      1.0     52              53
                        54
MAT2    51      3.4372+61.0312+6        3.4372+6        1.2022+68.9873-4
                                        .041
MAT2    52      9.1151+62.7345+6        9.1151+6        3.1897+68.9873-4
                                        .041
MAT2    53      3.7736+4                3.7736+4                8.9873-4
                                        .041
MAT2    54      3.4372+31.0312+3        3.4372+3        1.2022+38.9873-4
                                        .0410001
GRID    1001            -10.    -10.    0.              456
GRID    1002             10.    -10.    0.              456
GRID    1003             10.     10.    0.              456
GRID    1004            -10.     10.    0.              456
GRID    1005            -10.    -10.    20.             123456
GRID    1006             10.    -10.    20.             123456
GRID    1007             10.     10.    20.             123456
GRID    1008            -10.     10.    20.             123456
CHEXA   1001    1002    1001    1002    1003    1004    1005    1006
        1007    1008
PSOLID  1002    1003
MAT1    1003    1.+6            .0      .008                    .123
GRID	777		10.	0.	0.
CELAS1	171	175	777	1	0	0
CELAS1	172	175	777	2	0	0
CELAS1	173	175	777	3	0	0
CELAS1	174	175	777	4	0	0
CELAS1	175	175	777	5	0	0
CELAS1	176	175	777	6	0	0
PELAS	175	11.	.2
PELAST	175	201	202
GRID    888             10.     0.      0.
CDAMP1  181     185     888     1       0
PDAMP   185     .0888
PDAMPT  185     186
GRID    11              10.     0.      0.        
GRID    112             -10.    0.      0.              123456
GRID    21              -10.    10.     0.              123456
CBUSH   123     456     112     11      21
        1.
PBUSH   456     K       101.    202.    303.    404.    505.    606.
                GE      .07     .07     .07     .07     .07     .07
                B       .131    .132    .133
                RCV	1.
PBUSHT  456     K       101     101     101     101     101     101
                B       103     103     103
                GE      107     107     104     107     105     107
FORCE   85      11              10000.  1.
FORCE   85      11              1000.           1.
FORCE   85      11              100.                    1.
FORCE   85      777             20000.  1.
FORCE   85      777             2000.           1.
FORCE   85      777             200.                    1.
MOMENT  85      11              7000.   1.
MOMENT  85      11              700.            1.
MOMENT  85      11              70.                     1.
MOMENT  85      777             5000.   1.
MOMENT  85      777             500.            1.
MOMENT  85      777             50.                     1.
FORCE   85      1002            2255.                   1.
FORCE   85      1004            2255.                   1.
FORCE   85      10002           1.                      -1.7
FORCE   85      10003           1.                      -1.7
RLOAD1  186     85                      581
RLOAD1  187     85                      581     581     2
SPCD    85      888     1       30.
SPC     10      888     1
DLOAD   185     1.      1.      186     1.      187
TABLED1 581
        1.      1.      10000.  1.      ENDT
FREQ1   120     10.     5.      2
TABLED1 101
        10.     700.    20.     700.    ENDT
TABLED1 103
        10.      30.    20.      30.    ENDT
TABLED1 104
        10.     2.      20.     2.      ENDT
TABLED1 105
        10.     2.      20.     2.      ENDT
TABLED1 107
        10.     2.      20.     2.    	ENDT
TABLED1 186     
        10.     .999    20.     .999    ENDT
TABLED1 201
        10.     300.    20.     300.    ENDT
TABLED1 202
        10.     3.     	20.     3.   	ENDT
PARAM,POST,-1
ENDDATA
