ID NXN, SEE101ND $                                                              
TIME 10  $                                                                      
SOL 101 $                                                                       
CEND                                                                            
TITLE=LOOP STRUCTURE WITH SELOC INCLUDING ROTATION             SEE101ND         
SUBTITLE = se0 g1 t3,r1,r2= 2.847000+01, -1.078912+00, -1.697937+00             
ECHO = BOTH                                                                     
DISP = ALL                                                                      
SPC = 20                                                                        
set 100 = 0,2,3,4,5,6,7                                                         
subcase 1                                                                       
super = 1                                                                       
load = 1                                                                        
subcase 2                                                                       
super = 100                                                                     
LOAD = 1                                                                        
$       $$$$$$$$$$$$$$ FOR NASTRAN PLOT $$$$$$$$$$$$$$$$$$$$$$$$$$              
$       $$$$$$$$$$$$$$ FOR NASTRAN PLOT $$$$$$$$$$$$$$$$$$$$$$$$$$              
OUTPUT(PLOT)                                                                    
  CSCALE  1.3                                                                   
  PLOTTER NAST                                                                  
  PAPER SIZE 20. X 20.                                                          
  SET 1 ALL                                                                     
  MAXI DEFO 5.0                                                                 
$                                                                               
 SEPLOT 0,1,2,3,4,5,6,7                                                         
  VIEW 34.27 , 23.17 , 0.                                                       
  AXES X , Y , Z                                                                
  FIND SCALE ORIGIN 1 SET 1                                                     
  PLOT SENOMOVE  SET 1 LABEL BOTH                                               
$                                                                               
 SEPLOT 0,1,2,3,4,5,6,7                                                         
  VIEW 34.27 , 23.17 , 0.                                                       
  AXES X , Y , Z                                                                
  FIND SCALE ORIGIN 1 SET 1                                                     
  PLOT   SET 1 LABEL BOTH                                                       
  PLOT  STATIC 0  SET 1 LABEL BOTH                                              
$    
BEGIN BULK                                                                      
param 	semapprt99                                                               
PARAM       POST      -2
param,ogeom,yes                                                                           
$ **********************************                                            
$                                      .......                            ______
$                                      .     .                           |      
$                    se1 after mirror  .  S  .             y             |  S   
$                     of se7           .......             |             |......
$                                      .  E  .             |             |  E   
$                                      .  1  .             |             |  7   
$                                      ._____.____         .        _____.______
$                                      |     .    |        .       |     .      
$                                      |......____|        .       |_____.......
$                                      |     |                           |      
$                                      |  s  |       _____   ____        |  s   
$                                      |  e  |      |  s  | | s  |       |  e   
$                                      |  5  |      |  e  | | e  |       |  6   
$                                      |     |      |__2__| |_3__|       |      
$                                      |     |       ______._____   _____|......
$                                      |     |      |    se.4    | |     .      
$                                      |     |      |______._____| |_____.______
$                                      |.....|____   ______._____               
$   1  2  3    4  5  6  7              |     .    | |    se.0    |              
$   |  |  |    |  |  |  |              |_____.____| |______._____|              
$   ---------------------                                                       
$           |                                                                   
$           0                                                                   
$                                                                               
$                                                                               
$                                                                               
$                                                                               
$ Single level by default no SETREE specified                                   
$                                                                               
$ --------------------------------------------------------------------          
$ Residule structure SE=0                                                       
$                                                                               
$ PROPERTIES                                                                    
MAT1    1       29.0+6          0.3     .001    6.5-4                           
PSHELL  100     1       0.5     1                                               
$  APPLIED LOADS                                                                
PLOAD2  1       3.0+3   1       2                                               
$       2       3       4       5       6       7       8       9       10      
GRID    1               0.0     -10.0                                           
GRID    2               5.0     -10.0                                           
GRID    3               5.0     -5.0                                            
GRID    4               0.0     -5.0                                            
GRID    5               -5.0    -10.0                                           
GRID    6               -5.0    -5.0                                            
CQUAD4  1       100     1       2       3       4                               
CQUAD4  2       100     5       1       4       6                               
$                                                                               
$ POINTS DESIGNATED FOR SELOC SE1 (SEE SE1 6,5,2) TO LOCATION (40,50,60)        
$  THIS IS A FROM 3 POINTS IN SE1 TO A LOCATION DEFINED BY 3 POINTS IN SPACE    
$                                                                               
POINT	11		0.	0.                                                                 
POINT	12		0.	15.                                                                
POINT	13		0.	0.	100.                                                            
$                                                                               
$       2       3       4       5       6       7       8       9       0       
SEMPLN	1	PLANE	11	12	13                                                         
SEBULK	1	MIRROR	7	AUTO                                                          
$                                                                               
GRID    55              -15.    15.                                             
SPC1	20	123456	55                                                               
$                                                                               
$ -----------------------------------------------------------------------       
begin super = 1                                                                 
$       2       3       4       5       6       7       8       9       0       
PLOAD2  1       +1.5+3  71      72                                              
$ ------------------------------------------------------------------------      
BEGIN BULK SUPER = 2                                                            
$                                                                               
$ PROPERTIES                                                                    
MAT1    2       31.0+6          0.35    .001    6.5-4                           
PSHELL  200     2       0.5     2                                               
$  APPLIED LOADS                                                                
PLOAD2  1       3.0+3   21                                                      
$ GEOMETRY                                                                      
$       2       3       4       5       6       7       8       9       10      
GRID    21              0.0     0.0                                             
GRID    22              0.0     10.                                             
GRID    23              -5.     10.                                             
GRID    24              -5.     0.0                                             
$       2       3       4       5       6       7       8       9       10      
CQUAD4  21      200     24      23      22      21                              
$ ------------------------------------------------------------------------      
BEGIN BULK SUPER = 3                                                            
$ PROPERTIES                                                                    
MAT1    3       31.0+6          0.35    .001    6.5-4                           
PSHELL  300     3       0.5     3                                               
$  APPLIED LOADS                                                                
PLOAD2  1       3.0+3   31                                                      
$ GEOMETRY                                                                      
$       2       3       4       5       6       7       8       9       10      
GRID    31              0.0     0.0                                             
GRID    32              0.0     10.                                             
GRID    33              5.      10.                                             
GRID    34              5.      0.0                                             
$       2       3       4       5       6       7       8       9       10      
CQUAD4  31      300     34      33      32      31                              
SPC     10      32      13                                                      
SPC     10      34      123                                                     
$ -----------------------------------------------------------------------       
BEGIN BULK SUPER=4                                                              
$ PROPERTIES                                                                    
MAT1    4       29.0+6          0.3     .001    6.5-4                           
PSHELL  400     4       0.5     4                                               
$  APPLIED LOADS                                                                
PLOAD2  1       2.5+3   41      42                                              
$ GEOMETRY                                                                      
$       2       3       4       5       6       7       8       9       10      
GRID    41              0.0     -5.0                                            
GRID    42              5.0     -5.0                                            
GRID    43              5.0     0.0                                             
GRID    44              0.0     0.0                                             
GRID    45              -5.0    -5.0                                            
GRID    46              -5.0    0.0                                             
CQUAD4  41      400     41      42      43      44                              
CQUAD4  42      400     45      41      44      46                              
$ -----------------------------------------------------------------------       
BEGIN BULK SUPER = 5                                                            
$                                                                               
$ PROPERTIES                                                                    
MAT1    5       27.0+6          0.28    .001    6.5-4                           
PSHELL  500     5       0.5     5                                               
$  APPLIED LOADS                                                                
PLOAD2  1       1.5+3   51      52      53      54      55                      
$       2       3       4       5       6       7       8       9       10      
GRID    51              -5.     10.                                             
GRID    52              -5.     15.                                             
GRID    53              -10.    15.                                             
GRID    54              -10.    10.                                             
GRID    55              -15.    15.                                             
GRID    56              -15.    10.                                             
GRID    57              -15.    -5.                                             
GRID    58              -15.    -10.                                            
GRID    59              -10.    -10.                                            
GRID    510             -10.    -5.                                             
GRID    511             -5.     -10.                                            
GRID    512             -5.     -5.                                             
CQUAD4  51      500     51      52      53      54                              
CQUAD4  52      500     53      55      56      54                              
CQUAD4  53      500     510     54      56      57                              
CQUAD4  54      500     57      58      59      510                             
CQUAD4  55      500     59      511     512     510                             
SPC1    20      123456  56      57      58                                      
$ ------------------------------------------------------------------------      
BEGIN BULK SUPER = 6                                                            
$                                                                               
$ PROPERTIES                                                                    
MAT1    6       40.0+6          0.4     .001    6.5-4                           
PSHELL  600     6       0.5     6                                               
$  APPLIED LOADS                                                                
PLOAD2  1       1.5+3   61      62      63      64      65                      
$       2       3       4       5       6       7       8       9       10      
GRID    61              5.      10.                                             
GRID    62              5.      15.                                             
GRID    63              10.     15.                                             
GRID    64              10.     10.                                             
GRID    65              15.     15.                                             
GRID    66              15.     10.                                             
GRID    67              15.     0.                                              
GRID    68              15.     -5.                                             
GRID    69              10.     0.                                              
GRID    610             10.     -5.                                             
GRID    611             5.      -5.                                             
GRID    612             5.      0.                                              
CQUAD4  61      600     61      62      63      64                              
CQUAD4  62      600     63      65      66      64                              
CQUAD4  63      600     67      69      64      66                              
CQUAD4  64      600     69      67      68      610                             
CQUAD4  65      600     69      610     611     612                             
$ -----------------------------------------------------------------------       
BEGIN BULK SUPER = 7                                                            
$                                                                               
$                                                                               
$ PROPERTIES                                                                    
MAT1    7       29.0+6          0.3     .001    6.5-4                           
PSHELL  700     7       0.5     7                                               
$  APPLIED LOADS                                                                
PLOAD2  1       1.5+3   71      72                                              
$ GEOMETRY                                                                      
$       2       3       4       5       6       7       8       9       10      
GRID    71              15.     20.                                             
GRID    72              15.     25.                                             
GRID    73              10.     25.                                             
GRID    74              10.     20.                                             
GRID    75              15.     15.                                             
GRID    76              10.     15.                                             
CQUAD4  71      700     71      72      73      74                              
CQUAD4  72      700     75      71      74      76                              
$ASET   4       123                                                             
$ --------------------------------------------------------------------          
ENDDATA                                                                         
Keywords: partition bulk, single level, unique grids, elements, mat etc.,       
PLOTS-deformed, undeformed, SEPLOT list , SEBULK, MIRROR,                       
SEMPLN, PLANE, spcs not in most down stream se fatal message                    
*** SYSTEM FATAL MESSAGE ----,  (BNDSP3)                                        
    ILLEGAL SPC APPLIED TO BOUNDARY GRID         11 B   IN SUPERELEMENT         
    BOUNDARY GRID DOES NOT HAVE COINCIDENT COORDINATE DIRECTIONS IN ALL CONNECTI
take deck                                                                       
