id msc, swelpt26.dat $  v2004 sjf 11-Dec-2003
SOL 101
TIME 60
CEND
TITLE= twoel
SPC= 600
DISPL= ALL
OLOAD= ALL
set 77=2,10,30
FORCE=77
STRESS=77
SUBCASE 1
   SUBTITLE= shear the weld 
   LOAD= 1
   DISPL= ALL
BEGIN BULK
$
$ Grids of lower shell
grid, 101, , 0., 0., 0.
grid, 102, , 2., 0., 0.
grid, 103, , 2., 1., 0.
grid, 104, , 0., 1., 0.
grid, 1011, , .6, 0., 0.
grid, 1012, ,1.3, 0., 0.
grid, 1013, ,1.3, 1., 0.
grid, 1014, , .6, 1., 0.
grid, 1015, , 0., .3, 0.
grid, 1016, , .6, .3, 0.
grid, 1017, ,1.3, .3, 0.
grid, 1018, , 2., .3, 0.
grid, 1019, , 0., .6, 0.
grid, 1020, , .6, .6, 0.
grid, 1021, ,1.3, .6, 0.
grid, 1022, , 2., .6, 0.
$ Grids of upper shell
grid, 111, , 0., 0., 0.1
grid, 112, , 2., 0., 0.1
grid, 113, , 2., 1., 0.1
grid, 114, , 0., 1., 0.1
grid, 1111, , .6, 0., 0.1
grid, 1112, ,1.3, 0., 0.1
grid, 1113, ,1.3, 1., 0.1
grid, 1114, , .6, 1., 0.1
grid, 1115, , 0., .3, 0.1
grid, 1116, , .6, .3, 0.1
grid, 1117, ,1.3, .3, 0.1
grid, 1118, , 2., .3, 0.1
grid, 1119, , 0., .6, 0.1
grid, 1120, , .6, .6, 0.1
grid, 1121, ,1.3, .6, 0.1
grid, 1122, , 2., .6, 0.1
$ spot weld grid
grid, 300, , 1.0, 0.5, 0.5
$ quad4s
cquad4,  2, 10,  101, 1011, 1016, 1015
cquad4,  3, 10, 1011, 1012, 1017, 1016
cquad4,  4, 10, 1012,  102, 1018, 1017
cquad4,  5, 10, 1015, 1016, 1020, 1019
cquad4,  6, 10, 1017, 1018, 1022, 1021
cquad4,  7, 10, 1019, 1020, 1014,  104
cquad4,  8, 10, 1020, 1021, 1013, 1014
cquad4,  9, 10, 1021, 1022,  103, 1013
cquad4, 10, 10, 1016, 1017, 1021, 1020
cquad4, 11, 10, 1116, 1117, 1121, 1120
cquad4, 12, 10,  111, 1111, 1116, 1115
cquad4, 13, 10, 1111, 1112, 1117, 1116
cquad4, 14, 10, 1112,  112, 1118, 1117
cquad4, 15, 10, 1115, 1116, 1120, 1119
cquad4, 16, 10, 1117, 1118, 1122, 1121
cquad4, 17, 10, 1119, 1120, 1114,  114
cquad4, 18, 10, 1120, 1121, 1113, 1114
cquad4, 19, 10, 1121, 1122,  113, 1113
$
$ boundary conditions and loads
$
spc1, 600, 123456, 101, 104, 1015, 1019
load, 1, 1., 100., 301
force, 301, 112, 0, 0.5, 1., 0., 0.
force, 301, 113, 0, 0.5, 1., 0., 0.
force, 301, 1118, 0, 0.5, 1., 0., 0.
force, 301, 1122, 0, 0.5, 1., 0., 0.
$
$ property and material
pshell, 10, 10, 0.1, 10
mat1, 10, 1.+7, , 0.3, 1.e-4
$
$ spot weld
pweld, 30, 10, 0.1, FF, CLAMP, OFF,,spot
cweld, 30, 30, 300, elpat, , , , , +CW1
+CW1, 11, 10
$
PARAM,POST,-1
ENDDATA
enddata
