$ Added the STRESS request to verify OFP format
$ DEC/CMS REPLACEMENT HISTORY, Element V10111.DAT
$ *1    15-JUN-1990 16:41:29 CMSMGR "66B PLUS/G 66B/ Initial installation of DEMO test problems"
$ DEC/CMS REPLACEMENT HISTORY, Element V10111.DAT
ID MSC, V10111   $
$ Modified 11-Nov-2002 v2003 kkk
$ID MSC, V2411  $  GAD  7-SEPT-83
TIME 5
$SOL 24
SOL 101
CEND
TITLE=CANTILEVERED CYLINDRICAL SHELL ANALYSIS                  V10111
SUBTITLE=REF: GRAFTON AND STROME, AIAA JOURNAL 1963
AXISYMMETRIC = COSINE
LOAD = 10
FORCE = ALL
stress = all
strain = ALL
DISPL = ALL
VELO = ALL
ACCEL = ALL
BEGIN BULK
PARAM,POST,-1
AXIC,0
CCONEAX,101,1,1000,1001
=,*(1),=,*(1),*(1)$
=(7)$
MAT1,1,1.0+7,,0.3
PCONEAX,1,1,0.01,1,8.33-8
RINGAX,1000,,5.0,0.0,,,123456
RINGAX,1001,,5.0,2.0
RINGAX,1002,,5.0,4.0
RINGAX,1003,,5.0,4.5
RINGAX,1004,,5.0,5.0
=,*(1),,=,*(0.2)
=(4)$
FORCEAX,10,1009,0,1.0,31.416
ENDDATA
