PARAM    POST    -2
param,postext,yes
PARAM   PRTMAXIM YES
EIGRL    1                       20      0
$ Direct Text Input for Bulk Data
$ Elements and Element Properties for region : plate
PSHELL   1       1      .01      1               1
$ Pset: "plate" will be imported as: "pshell.1"
CQUAD4   1       1       1       2       31      30
CQUAD4   2       1       2       3       32      31
CQUAD4   3       1       3       4       33      32
CQUAD4   4       1       4       5       34      33
CQUAD4   5       1       5       6       35      34
CQUAD4   6       1       6       7       36      35
CQUAD4   7       1       7       8       37      36
CQUAD4   8       1       8       9       38      37
CQUAD4   9       1       9       10      39      38
CQUAD4   10      1       10      11      40      39
CQUAD4   11      1       11      12      41      40
CQUAD4   12      1       12      13      42      41
CQUAD4   13      1       13      14      43      42
CQUAD4   14      1       14      15      44      43
CQUAD4   15      1       15      16      45      44
CQUAD4   16      1       16      17      46      45
CQUAD4   17      1       17      18      47      46
CQUAD4   18      1       18      19      48      47
CQUAD4   19      1       19      20      49      48
CQUAD4   20      1       20      21      50      49
$ ... 64 like lines cut
$ Referenced Material Records
$ Material Record : Aluminum
$ Description of Material : Date: 29-Nov-17           Time: 14:51:22
$ E = 6.89E10 Pa
$ G = ???
$ nu = 0.3
$ rho = 2800 kg/m^3?
MAT1     1      6.89+10         .3      2800.
$ Nodes of the Entire Model
GRID     1               0.      0.      0.
GRID     2               0.     .357     0.
GRID     3               0.     .714     0.
GRID     4               0.     1.071    0.
GRID     5               0.     1.429    0.
GRID     6               0.     1.786    0.
GRID     7               0.     2.143    0.
GRID     8               0.     2.5      0.
GRID     9               0.     2.857    0.
GRID     10              0.     3.214    0.
GRID     11              0.     3.571    0.
GRID     12              0.     3.929    0.
GRID     13              0.     4.286    0.
GRID     14              0.     4.643    0.
GRID     15              0.     5.       0.
GRID     16              0.     5.357    0.
GRID     17              0.     5.714    0.
GRID     18              0.     6.071    0.
GRID     19              0.     6.429    0.
GRID     20              0.     6.786    0.
$ ... 96 like lines cut
$ Loads for Load Case : Default
$ Referenced Coordinate Frames

