                                                                                                                                    
0        N A S T R A N    F I L E    A N D    S Y S T E M    P A R A M E T E R    E C H O                                           
0                                                                                                                                   
                                                                                                                                    
                                                                                                                                    
     NASTRAN BUFFSIZE=2049                                                           
                                                                                                                                    
0        N A S T R A N    E X E C U T I V E    C O N T R O L    D E C K    E C H O                                                  
0                                                                                                                                   
                                                                                                                                    
                                                                                                                                    
     SOL 103                                                                         
     CEND                                                                                    
                                                                                                                                    
0                                                                                                                                   
0                                        C A S E    C O N T R O L   D E C K   E C H O                                               
                 CARD                                                                                                               
                 COUNT                                                                                                              
                  1        ECHO    = SORT                                                                        
                  2        SPC     = 1   $ WING ROOT DEFLECTIONS AND PLATE IN-PLANE ROTATIONS FIX        ED      
                  3        METHOD  = 10  $ MODIFIED GIVENS METHOD OF REAL EIGENVALUE EXTRACTION                  
                  4        DISP = ALL                                                                            
                  5      BEGIN BULK                                                                              
0                             INPUT BULK DATA CARD COUNT =     184
                                                                                                                                    
0                                                                                                                                   
0                                                 S O R T E D   B U L K   D A T A   E C H O                                         
                 CARD                                                                                                               
                 COUNT        .   1  ..   2  ..   3  ..   4  ..   5  ..   6  ..   7  ..   8  ..   9  ..  10  .                      
                    1-        ASET1   3       1       THRU    8                                               
                    2-        ASET1   3       10      THRU    16                                              
                    3-        ASET1   3       18      THRU    24                                              
                    4-        ASET1   3       26      THRU    40                                              
                    5-        CQUAD4  1       1       1       2       10      9                       +M00000 
                    6-        +M00000                 0.0     0.0     .041    .041                            
                    7-        CQUAD4  2       1       2       3       11      10                      +M00001 
                    8-        +M00001                 0.0     0.0     .041    .041                            
                    9-        CQUAD4  3       1       3       4       12      11                      +M00002 
                   10-        +M00002                 0.0     0.0     .041    .041                            
                   11-        CQUAD4  4       1       4       5       13      12                      +M00003 
                   12-        +M00003                 0.0     0.0     .041    .041                            
                   13-        CQUAD4  5       1       5       6       14      13                      +M00004 
                   14-        +M00004                 0.0     0.0     .041    .041                            
                   15-        CQUAD4  6       1       6       7       15      14                      +M00005 
                   16-        +M00005                 0.0     0.0     .041    .041                            
                   17-        CQUAD4  7       1       7       8       16      15                      +M00006 
                   18-        +M00006                 0.0     0.0     .041    .041                            
                   19-        CQUAD4  8       1       9       10      18      17                              
                   20-        CQUAD4  9       1       10      11      19      18                              
                   21-        CQUAD4  10      1       11      12      20      19                              
                   22-        CQUAD4  11      1       12      13      21      20                              
                   23-        CQUAD4  12      1       13      14      22      21                              
                   24-        CQUAD4  13      1       14      15      23      22                              
                   25-        CQUAD4  14      1       15      16      24      23                              
                   26-        CQUAD4  15      1       17      18      26      25                              
                   27-        CQUAD4  16      1       18      19      27      26                              
                   28-        CQUAD4  17      1       19      20      28      27                              
                   29-        CQUAD4  18      1       20      21      29      28                              
                   30-        CQUAD4  19      1       21      22      30      29                              
                   31-        CQUAD4  20      1       22      23      31      30                              
                   32-        CQUAD4  21      1       23      24      32      31                              
                   33-        CQUAD4  22      1       25      26      34      33                      +M00007 
                   34-        +M00007                 .041    .041    0.0     0.0                             
                   35-        CQUAD4  23      1       26      27      35      34                      +M00008 
                   36-        +M00008                 .041    .041    0.0     0.0                             
                   37-        CQUAD4  24      1       27      28      36      35                      +M00009 
                   38-        +M00009                 .041    .041    0.0     0.0                             
                   39-        CQUAD4  25      1       28      29      37      36                      +M00010 
                   40-        +M00010                 .041    .041    0.0     0.0                             
                   41-        CQUAD4  26      1       29      30      38      37                      +M00011 
                   42-        +M00011                 .041    .041    0.0     0.0                             
                   43-        CQUAD4  27      1       30      31      39      38                      +M00012 
                   44-        +M00012                 .041    .041    0.0     0.0                             
                   45-        CQUAD4  28      1       31      32      40      39                      +M00013 
                   46-        +M00013                 .041    .041    0.0     0.0                             
                   47-        EIGR    10      MGIV                            4                       +ER     
                   48-        +ER     MAX                                                                     
                   49-        GRID    1               0.0     0.0     0.0                                     
                   50-        GRID    2               .211491 .7893   0.0                                     
                                                                                                                                    
0                                                                                                                                   
0                                                 S O R T E D   B U L K   D A T A   E C H O                                         
                 CARD                                                                                                               
                 COUNT        .   1  ..   2  ..   3  ..   4  ..   5  ..   6  ..   7  ..   8  ..   9  ..  10  .                      
                   51-        GRID    3               .422983 1.5786  0.0                                     
                   52-        GRID    4               .634474 2.3679  0.0                                     
                   53-        GRID    5               .845966 3.1572  0.0                                     
                   54-        GRID    6               1.05746 3.9465  0.0                                     
                   55-        GRID    7               1.26895 4.7358  0.0                                     
                   56-        GRID    8               1.48044 5.5251  0.0                                     
                   57-        GRID    9               .258819 0.0     0.0                                     
                   58-        GRID    10              .47031  .7893   0.0                                     
                   59-        GRID    11              .681802 1.5786  0.0                                     
                   60-        GRID    12              .893293 2.3679  0.0                                     
                   61-        GRID    13              1.10478 3.1572  0.0                                     
                   62-        GRID    14              1.31628 3.9465  0.0                                     
                   63-        GRID    15              1.52777 4.7358  0.0                                     
                   64-        GRID    16              1.73926 5.5251  0.0                                     
                   65-        GRID    17              1.03528 0.0     0.0                                     
                   66-        GRID    18              1.24677 .7893   0.0                                     
                   67-        GRID    19              1.45826 1.5786  0.0                                     
                   68-        GRID    20              1.66975 2.3679  0.0                                     
                   69-        GRID    21              1.88124 3.1572  0.0                                     
                   70-        GRID    22              2.09273 3.9465  0.0                                     
                   71-        GRID    23              2.30422 4.7358  0.0                                     
                   72-        GRID    24              2.51572 5.5251  0.0                                     
                   73-        GRID    25              1.81173 0.0     0.0                                     
                   74-        GRID    26              2.02322 .7893   0.0                                     
                   75-        GRID    27              2.23471 1.5786  0.0                                     
                   76-        GRID    28              2.44621 2.3679  0.0                                     
                   77-        GRID    29              2.6577  3.1572  0.0                                     
                   78-        GRID    30              2.86919 3.9465  0.0                                     
                   79-        GRID    31              3.08068 4.7358  0.0                                     
                   80-        GRID    32              3.29217 5.5251  0.0                                     
                   81-        GRID    33              2.07055 0.0     0.0                                     
                   82-        GRID    34              2.28204 .7893   0.0                                     
                   83-        GRID    35              2.49353 1.5786  0.0                                     
                   84-        GRID    36              2.70502 2.3679  0.0                                     
                   85-        GRID    37              2.91652 3.1572  0.0                                     
                   86-        GRID    38              3.12801 3.9465  0.0                                     
                   87-        GRID    39              3.3395  4.7358  0.0                                     
                   88-        GRID    40              3.55099 5.5251  0.0                                     
                   89-        MAT1    1       6.3604+62.5442+6        .0626202                        MGNSIUM 
                   90-        PARAM   COUPMASS1                                                               
                   91-        PARAM   GRDPNT  17                                                              
                   92-        PARAM   WTMASS  .0025901                                                        
                   93-        PSHELL  1       1       .041    1               1                               
                   94-        SPC1    1       6       1       THRU    40                                      
                   95-        SPC1    1       12345   9                                                       
                   96-        SPC1    1       12345   25                                                      
                              ENDDATA 
0                       TOTAL COUNT=        97
                                                                                                                                    
0                                                                                                                                   
                           O U T P U T   F R O M   G R I D   P O I N T   W E I G H T   G E N E R A T O R
0                                                     REFERENCE POINT =       17
                                                                M O
                      *  2.569994E-02  3.472835E-20  0.000000E+00  0.000000E+00  0.000000E+00 -7.099739E-02 *
                      *  3.472835E-20  2.569994E-02  0.000000E+00  0.000000E+00  0.000000E+00  1.902349E-02 *
                      *  0.000000E+00  0.000000E+00  2.569994E-02  7.099739E-02 -1.902349E-02  0.000000E+00 *
                      *  0.000000E+00  0.000000E+00  7.099739E-02  2.615117E-01 -7.007128E-02  0.000000E+00 *
                      *  0.000000E+00  0.000000E+00 -1.902349E-02 -7.007128E-02  2.594857E-02  0.000000E+00 *
                      * -7.099739E-02  1.902349E-02  0.000000E+00  0.000000E+00  0.000000E+00  2.874603E-01 *
                                                                 S
                                           *  1.000000E+00  0.000000E+00  0.000000E+00 *
                                           *  0.000000E+00  1.000000E+00  0.000000E+00 *
                                           *  0.000000E+00  0.000000E+00  1.000000E+00 *
                               DIRECTION
                          MASS AXIS SYSTEM (S)     MASS              X-C.G.        Y-C.G.        Z-C.G.
                                  X            2.569994E-02      0.000000E+00  2.762550E+00  0.000000E+00
                                  Y            2.569994E-02      7.402154E-01  0.000000E+00  0.000000E+00
                                  Z            2.569994E-02      7.402154E-01  2.762550E+00  0.000000E+00
                                                                I(S)
                                           *  6.537790E-02  1.751792E-02  0.000000E+00 *
                                           *  1.751792E-02  1.186709E-02  0.000000E+00 *
                                           *  0.000000E+00  0.000000E+00  7.724499E-02 *
                                                                I(Q)
                                           *  7.060263E-02                             *
                                           *                6.642357E-03               *
                                           *                              7.724499E-02 *
                                                                 Q
                                           *  9.582864E-01  2.858097E-01  0.000000E+00 *
                                           * -2.858097E-01  9.582864E-01  0.000000E+00 *
                                           *  0.000000E+00  0.000000E+00  1.000000E+00 *

0                                                                                                                                   
 *** SYSTEM INFORMATION MESSAGE 6916 (DFMSYN)
     DECOMP ORDERING METHOD CHOSEN: BEND, ORDERING METHOD USED: BEND
 *** USER INFORMATION MESSAGE 5458 (REIG)
     MODIFIED GIVENS METHOD IS FORCED BY USER  .
                                                                                                                                    
0                                                                                                                                   
 
                                              R E A L   E I G E N V A L U E S
   MODE    EXTRACTION      EIGENVALUE            RADIANS             CYCLES            GENERALIZED         GENERALIZED
    NO.       ORDER                                                                       MASS              STIFFNESS
        1         1        4.966089E+04        2.228472E+02        3.546724E+01        1.597554E-05        7.933597E-01
        2         2        1.876190E+06        1.369741E+03        2.180010E+02        6.074553E-06        1.139702E+01
        3         3        2.956955E+06        1.719580E+03        2.736796E+02        5.465819E-06        1.616218E+01
        4         4        1.694829E+07        4.116831E+03        6.552139E+02        5.314034E-06        9.006380E+01
        5         5        2.949705E+07        5.431119E+03        8.643894E+02        0.0                 0.0
        6         6        7.178734E+07        8.472741E+03        1.348479E+03        0.0                 0.0
        7         7        1.101135E+08        1.049350E+04        1.670092E+03        0.0                 0.0
        8         8        2.209182E+08        1.486332E+04        2.365570E+03        0.0                 0.0
        9         9        3.014645E+08        1.736273E+04        2.763365E+03        0.0                 0.0
       10        10        3.820512E+08        1.954613E+04        3.110863E+03        0.0                 0.0
       11        11        4.527089E+08        2.127696E+04        3.386333E+03        0.0                 0.0
       12        12        6.099227E+08        2.469661E+04        3.930588E+03        0.0                 0.0
       13        13        6.858817E+08        2.618934E+04        4.168164E+03        0.0                 0.0
       14        14        7.699357E+08        2.774771E+04        4.416186E+03        0.0                 0.0
       15        15        1.128859E+09        3.359850E+04        5.347367E+03        0.0                 0.0
       16        16        1.379612E+09        3.714312E+04        5.911512E+03        0.0                 0.0
       17        17        1.608310E+09        4.010375E+04        6.382709E+03        0.0                 0.0
       18        18        2.146054E+09        4.632552E+04        7.372935E+03        0.0                 0.0
       19        19        3.087388E+09        5.556427E+04        8.843328E+03        0.0                 0.0
       20        20        3.837681E+09        6.194902E+04        9.859493E+03        0.0                 0.0
       21        21        3.971669E+09        6.302118E+04        1.003013E+04        0.0                 0.0
       22        22        4.600921E+09        6.783009E+04        1.079549E+04        0.0                 0.0
       23        25        4.791608E+09        6.922144E+04        1.101693E+04        0.0                 0.0
       24        26        5.140078E+09        7.169434E+04        1.141051E+04        0.0                 0.0
       25        31        5.447844E+09        7.380951E+04        1.174715E+04        0.0                 0.0
       26        35        5.939423E+09        7.706765E+04        1.226570E+04        0.0                 0.0
       27        37        6.409836E+09        8.006145E+04        1.274217E+04        0.0                 0.0
       28        36        6.900809E+09        8.307111E+04        1.322118E+04        0.0                 0.0
       29        34        7.609705E+09        8.723362E+04        1.388366E+04        0.0                 0.0
       30        33        8.765615E+09        9.362487E+04        1.490086E+04        0.0                 0.0
       31        32        9.568481E+09        9.781862E+04        1.556832E+04        0.0                 0.0
       32        30        1.116981E+10        1.056873E+05        1.682066E+04        0.0                 0.0
       33        29        1.227207E+10        1.107794E+05        1.763108E+04        0.0                 0.0
       34        28        1.319043E+10        1.148496E+05        1.827888E+04        0.0                 0.0
       35        27        1.521863E+10        1.233638E+05        1.963396E+04        0.0                 0.0
       36        24        1.984275E+10        1.408643E+05        2.241925E+04        0.0                 0.0
       37        23        2.111545E+10        1.453116E+05        2.312705E+04        0.0                 0.0
                                                                                                                                    
0                                                                                                                                   
                                                                                                                                    
0                                                                                                                                   
      EIGENVALUE =  4.966089E+04
          CYCLES =  3.546724E+01         R E A L   E I G E N V E C T O R   N O .          1
 
      POINT ID.   TYPE          T1             T2             T3             R1             R2             R3
             1      G      0.0            0.0           -3.177641E-03   5.710700E-02  -2.225847E-02   0.0
             2      G      0.0            0.0            3.466399E-02   2.827334E-02  -1.574365E-02   0.0
             3      G      0.0            0.0            1.208369E-01   1.687295E-01  -3.860028E-02   0.0
             4      G      0.0            0.0            2.424595E-01   1.223329E-01  -2.303772E-02   0.0
             5      G      0.0            0.0            3.901408E-01   2.282930E-01  -4.816557E-02   0.0
             6      G      0.0            0.0            5.602162E-01   1.802223E-01  -3.166129E-02   0.0
             7      G      0.0            0.0            7.362691E-01   2.426241E-01  -4.697696E-02   0.0
             8      G      0.0            0.0            9.192188E-01   1.988754E-01  -3.358189E-02   0.0
             9      G      0.0            0.0            0.0            0.0            0.0            0.0
            10      G      0.0            0.0            4.019029E-02   9.116540E-02  -3.023629E-02   0.0
            11      G      0.0            0.0            1.287552E-01   1.183675E-01  -1.831846E-02   0.0
            12      G      0.0            0.0            2.497338E-01   1.714814E-01  -3.489073E-02   0.0
            13      G      0.0            0.0            4.012302E-01   1.916025E-01  -3.536316E-02   0.0
            14      G      0.0            0.0            5.693870E-01   2.126201E-01  -3.980973E-02   0.0
            15      G      0.0            0.0            7.475080E-01   2.164140E-01  -3.917040E-02   0.0
            16      G      0.0            0.0            9.288043E-01   2.211759E-01  -4.038252E-02   0.0
            17      G      0.0            0.0           -3.139185E-04   6.098017E-02  -6.990874E-04   0.0
            18      G      0.0            0.0            5.307268E-02   7.231662E-02  -2.554122E-03   0.0
            19      G      0.0            0.0            1.423508E-01   1.461928E-01  -1.677334E-02   0.0
            20      G      0.0            0.0            2.734014E-01   1.725224E-01  -2.565950E-02   0.0
            21      G      0.0            0.0            4.279933E-01   2.013863E-01  -3.327638E-02   0.0
            22      G      0.0            0.0            5.991349E-01   2.120074E-01  -3.647467E-02   0.0
            23      G      0.0            0.0            7.779750E-01   2.198114E-01  -3.903528E-02   0.0
            24      G      0.0            0.0            9.598176E-01   2.195428E-01  -3.923723E-02   0.0
            25      G      0.0            0.0            0.0            0.0            0.0            0.0
            26      G      0.0            0.0            4.735721E-02   1.203464E-01   1.591588E-02   0.0
            27      G      0.0            0.0            1.539442E-01   1.485789E-01  -1.306415E-02   0.0
            28      G      0.0            0.0            2.916332E-01   1.886990E-01  -2.129181E-02   0.0
            29      G      0.0            0.0            4.529410E-01   2.041422E-01  -3.071789E-02   0.0
            30      G      0.0            0.0            6.273171E-01   2.181408E-01  -3.591881E-02   0.0
            31      G      0.0            0.0            8.079914E-01   2.187324E-01  -3.807591E-02   0.0
            32      G      0.0            0.0            9.904229E-01   2.223233E-01  -3.940554E-02   0.0
            33      G      0.0            0.0           -3.292927E-03   3.037129E-02   1.764832E-02   0.0
            34      G      0.0            0.0            4.410951E-02   1.026832E-01   1.694510E-02   0.0
            35      G      0.0            0.0            1.569097E-01   1.761944E-01  -1.333695E-02   0.0
            36      G      0.0            0.0            2.970206E-01   1.706534E-01  -1.712837E-02   0.0
            37      G      0.0            0.0            4.611472E-01   2.267395E-01  -3.401156E-02   0.0
            38      G      0.0            0.0            6.362092E-01   1.984645E-01  -3.138098E-02   0.0
            39      G      0.0            0.0            8.184620E-01   2.411798E-01  -4.306755E-02   0.0
            40      G      0.0            0.0            1.000000E+00   1.976597E-01  -3.439136E-02   0.0
                                                                                                                                    
0                                                                                                                                   
      EIGENVALUE =  1.876190E+06
          CYCLES =  2.180010E+02         R E A L   E I G E N V E C T O R   N O .          2
 
      POINT ID.   TYPE          T1             T2             T3             R1             R2             R3
             1      G      0.0            0.0            1.076519E-02  -2.433207E-01   8.325648E-02   0.0
             2      G      0.0            0.0           -1.455797E-01  -9.741308E-02  -1.021172E-02   0.0
             3      G      0.0            0.0           -4.042479E-01  -5.123186E-01  -4.539557E-02   0.0
             4      G      0.0            0.0           -6.051180E-01  -5.583263E-02  -2.652566E-01   0.0
             5      G      0.0            0.0           -6.545122E-01  -1.959130E-01  -2.932936E-01   0.0
             6      G      0.0            0.0           -5.606912E-01   2.297285E-01  -4.505970E-01   0.0
             7      G      0.0            0.0           -3.175941E-01   1.411230E-01  -4.398464E-01   0.0
             8      G      0.0            0.0           -1.491533E-02   3.639295E-01  -5.100252E-01   0.0
             9      G      0.0            0.0            0.0            0.0            0.0            0.0
            10      G      0.0            0.0           -1.483781E-01  -3.298120E-01   4.441432E-02   0.0
            11      G      0.0            0.0           -3.850683E-01  -2.655696E-01  -1.228902E-01   0.0
            12      G      0.0            0.0           -5.425583E-01  -2.060066E-01  -2.132789E-01   0.0
            13      G      0.0            0.0           -5.742006E-01  -1.660853E-02  -3.345525E-01   0.0
            14      G      0.0            0.0           -4.483187E-01   1.292873E-01  -4.122958E-01   0.0
            15      G      0.0            0.0           -2.003406E-01   2.525528E-01  -4.655614E-01   0.0
            16      G      0.0            0.0            1.140090E-01   2.822633E-01  -4.841054E-01   0.0
            17      G      0.0            0.0           -9.321878E-04  -1.995024E-01  -5.667395E-03   0.0
            18      G      0.0            0.0           -1.469279E-01  -1.640017E-01  -5.789461E-02   0.0
            19      G      0.0            0.0           -2.871523E-01  -2.196950E-01  -1.335604E-01   0.0
            20      G      0.0            0.0           -3.702640E-01  -7.673437E-02  -2.329681E-01   0.0
            21      G      0.0            0.0           -3.166552E-01   6.370363E-02  -3.284229E-01   0.0
            22      G      0.0            0.0           -1.281732E-01   2.074918E-01  -4.103428E-01   0.0
            23      G      0.0            0.0            1.599458E-01   2.773446E-01  -4.594569E-01   0.0
            24      G      0.0            0.0            4.924163E-01   3.044380E-01  -4.869041E-01   0.0
            25      G      0.0            0.0            0.0            0.0            0.0            0.0
            26      G      0.0            0.0           -7.832745E-02  -2.032576E-01  -1.179812E-01   0.0
            27      G      0.0            0.0           -1.809496E-01  -1.080277E-01  -1.410732E-01   0.0
            28      G      0.0            0.0           -1.867020E-01   1.950543E-03  -2.388912E-01   0.0
            29      G      0.0            0.0           -6.006372E-02   1.645762E-01  -3.305187E-01   0.0
            30      G      0.0            0.0            1.926583E-01   2.657362E-01  -4.128445E-01   0.0
            31      G      0.0            0.0            5.203844E-01   3.153380E-01  -4.654137E-01   0.0
            32      G      0.0            0.0            8.721126E-01   3.133632E-01  -4.870962E-01   0.0
            33      G      0.0            0.0            9.889719E-03  -5.189328E-02  -5.428961E-02   0.0
            34      G      0.0            0.0           -5.051656E-02  -1.437815E-01  -1.161583E-01   0.0
            35      G      0.0            0.0           -1.437313E-01  -1.364077E-01  -1.389733E-01   0.0
            36      G      0.0            0.0           -1.249290E-01   7.692275E-02  -2.439464E-01   0.0
            37      G      0.0            0.0            2.522996E-02   1.456973E-01  -3.216818E-01   0.0
            38      G      0.0            0.0            3.011480E-01   3.298752E-01  -4.239695E-01   0.0
            39      G      0.0            0.0            6.403317E-01   2.736300E-01  -4.567905E-01   0.0
            40      G      0.0            0.0            1.000000E+00   3.707772E-01  -4.984171E-01   0.0
                                                                                                                                    
0                                                                                                                                   
      EIGENVALUE =  2.956955E+06
          CYCLES =  2.736796E+02         R E A L   E I G E N V E C T O R   N O .          3
 
      POINT ID.   TYPE          T1             T2             T3             R1             R2             R3
             1      G      0.0            0.0            1.848865E-03   2.670975E-02  -2.156839E-03   0.0
             2      G      0.0            0.0            2.956193E-02   5.589033E-02   5.979180E-02   0.0
             3      G      0.0            0.0            8.557373E-02   1.325502E-01   1.615312E-01   0.0
             4      G      0.0            0.0            1.687198E-01   1.826797E-01   3.067155E-01   0.0
             5      G      0.0            0.0            2.985356E-01   3.099898E-01   4.122333E-01   0.0
             6      G      0.0            0.0            5.053338E-01   4.263178E-01   5.094689E-01   0.0
             7      G      0.0            0.0            7.534628E-01   4.660744E-01   5.890397E-01   0.0
             8      G      0.0            0.0            1.000000E+00   4.713723E-01   6.281542E-01   0.0
             9      G      0.0            0.0            0.0            0.0            0.0            0.0
            10      G      0.0            0.0            1.174051E-02   5.608928E-02   6.934599E-02   0.0
            11      G      0.0            0.0            4.094333E-02   9.363271E-02   1.812581E-01   0.0
            12      G      0.0            0.0            8.624984E-02   1.623567E-01   3.327654E-01   0.0
            13      G      0.0            0.0            1.894967E-01   2.984430E-01   4.335784E-01   0.0
            14      G      0.0            0.0            3.714224E-01   4.069354E-01   5.297652E-01   0.0
            15      G      0.0            0.0            6.004592E-01   4.597444E-01   5.964572E-01   0.0
            16      G      0.0            0.0            8.368752E-01   4.626641E-01   6.355969E-01   0.0
            17      G      0.0            0.0           -3.193161E-04  -3.943648E-02   8.194263E-03   0.0
            18      G      0.0            0.0           -5.006812E-02  -4.277099E-02   9.249041E-02   0.0
            19      G      0.0            0.0           -1.350967E-01  -5.758485E-02   2.725917E-01   0.0
            20      G      0.0            0.0           -2.014132E-01   8.103922E-02   4.064467E-01   0.0
            21      G      0.0            0.0           -1.781411E-01   2.241182E-01   5.116053E-01   0.0
            22      G      0.0            0.0           -6.092087E-02   3.570503E-01   5.819532E-01   0.0
            23      G      0.0            0.0            1.242391E-01   4.246790E-01   6.283526E-01   0.0
            24      G      0.0            0.0            3.359584E-01   4.491851E-01   6.523202E-01   0.0
            25      G      0.0            0.0            0.0            0.0            0.0            0.0
            26      G      0.0            0.0           -1.425986E-01  -2.840995E-01   1.535193E-01   0.0
            27      G      0.0            0.0           -3.830405E-01  -1.612982E-01   3.663884E-01   0.0
            28      G      0.0            0.0           -5.516363E-01  -1.735597E-02   4.943498E-01   0.0
            29      G      0.0            0.0           -6.036602E-01   1.796153E-01   5.819765E-01   0.0
            30      G      0.0            0.0           -5.328336E-01   3.202280E-01   6.310563E-01   0.0
            31      G      0.0            0.0           -3.744592E-01   4.156159E-01   6.532360E-01   0.0
            32      G      0.0            0.0           -1.771789E-01   4.325322E-01   6.660703E-01   0.0
            33      G      0.0            0.0           -5.231077E-03  -1.271440E-01   1.287095E-02   0.0
            34      G      0.0            0.0           -1.895507E-01  -2.453643E-01   1.696592E-01   0.0
            35      G      0.0            0.0           -4.825777E-01  -2.661881E-01   4.065452E-01   0.0
            36      G      0.0            0.0           -6.835403E-01   3.975725E-02   5.102636E-01   0.0
            37      G      0.0            0.0           -7.583391E-01   1.066423E-01   6.161198E-01   0.0
            38      G      0.0            0.0           -6.965958E-01   3.873595E-01   6.297446E-01   0.0
            39      G      0.0            0.0           -5.463344E-01   3.421912E-01   6.755947E-01   0.0
            40      G      0.0            0.0           -3.476769E-01   5.126568E-01   6.508620E-01   0.0
                                                                                                                                    
0                                                                                                                                   
      EIGENVALUE =  1.694829E+07
          CYCLES =  6.552139E+02         R E A L   E I G E N V E C T O R   N O .          4
 
      POINT ID.   TYPE          T1             T2             T3             R1             R2             R3
             1      G      0.0            0.0           -2.553741E-02   6.353627E-01  -2.010510E-01   0.0
             2      G      0.0            0.0            3.410122E-01   1.103765E-01   9.241787E-02   0.0
             3      G      0.0            0.0            7.087583E-01   7.653202E-01   2.077903E-01   0.0
             4      G      0.0            0.0            5.921889E-01  -7.725885E-01   5.854424E-01   0.0
             5      G      0.0            0.0            5.768351E-02  -2.477417E-01   2.110404E-01   0.0
             6      G      0.0            0.0           -3.615313E-01  -6.306326E-01   6.602567E-02   0.0
             7      G      0.0            0.0           -3.927800E-01   4.549379E-01  -3.832628E-01   0.0
             8      G      0.0            0.0           -1.120799E-03   2.889588E-01  -3.962189E-01   0.0
             9      G      0.0            0.0            0.0            0.0            0.0            0.0
            10      G      0.0            0.0            3.327161E-01   6.819294E-01  -6.273971E-02   0.0
            11      G      0.0            0.0            6.385583E-01   1.166042E-01   3.686595E-01   0.0
            12      G      0.0            0.0            4.579400E-01  -3.213167E-01   4.099383E-01   0.0
            13      G      0.0            0.0           -8.900492E-03  -5.736579E-01   2.993206E-01   0.0
            14      G      0.0            0.0           -3.685505E-01  -2.121066E-01  -2.585873E-02   0.0
            15      G      0.0            0.0           -3.027726E-01   2.606825E-01  -2.996316E-01   0.0
            16      G      0.0            0.0            1.120590E-01   5.360468E-01  -4.724657E-01   0.0
            17      G      0.0            0.0            7.778006E-03   4.696930E-01   1.102039E-02   0.0
            18      G      0.0            0.0            3.068206E-01   2.171436E-01   1.554911E-01   0.0
            19      G      0.0            0.0            3.828271E-01   4.252081E-02   2.935260E-01   0.0
            20      G      0.0            0.0            1.585452E-01  -3.886370E-01   3.565614E-01   0.0
            21      G      0.0            0.0           -2.146456E-01  -3.138714E-01   2.238212E-01   0.0
            22      G      0.0            0.0           -3.436901E-01   7.601811E-02  -3.742379E-02   0.0
            23      G      0.0            0.0           -6.485043E-02   4.977998E-01  -3.044232E-01   0.0
            24      G      0.0            0.0            4.869601E-01   6.432102E-01  -4.776986E-01   0.0
            25      G      0.0            0.0            0.0            0.0            0.0            0.0
            26      G      0.0            0.0            1.493131E-01   3.137032E-01   2.341917E-01   0.0
            27      G      0.0            0.0            1.673596E-01  -1.809944E-01   2.496131E-01   0.0
            28      G      0.0            0.0           -1.175786E-01  -3.337114E-01   3.397256E-01   0.0
            29      G      0.0            0.0           -3.887716E-01  -1.192367E-01   2.160072E-01   0.0
            30      G      0.0            0.0           -3.056554E-01   3.997345E-01  -5.977828E-02   0.0
            31      G      0.0            0.0            1.865978E-01   6.892546E-01  -3.334374E-01   0.0
            32      G      0.0            0.0            8.719457E-01   7.742582E-01  -4.977210E-01   0.0
            33      G      0.0            0.0           -1.374178E-02   1.321488E-01   9.354862E-02   0.0
            34      G      0.0            0.0            9.982388E-02   1.490100E-01   2.088050E-01   0.0
            35      G      0.0            0.0            1.025408E-01  -9.828188E-02   2.247579E-01   0.0
            36      G      0.0            0.0           -2.078727E-01  -4.546990E-01   3.572865E-01   0.0
            37      G      0.0            0.0           -4.458803E-01   7.385918E-02   2.022312E-01   0.0
            38      G      0.0            0.0           -2.922621E-01   3.712741E-01  -3.401139E-02   0.0
            39      G      0.0            0.0            2.806188E-01   8.735818E-01  -3.770245E-01   0.0
            40      G      0.0            0.0            1.000000E+00   6.495672E-01  -4.693767E-01   0.0
                                                                                                                                    
0                                                                                                                                   
                                                                                                                                    
0                                                                                                                                   
