ID WINGBOX,V3-A
APP DISPLACEMENT
SOL 1
TIME 5
ALTER      110
OUTPUT2    OUGV1,OEF1,OES1,,//-1/12////*MSC*  $
OUTPUT2    ,,,,, //-9/12/  $
ENDALTER  
CEND
TITLE = WINGBOX V3A
LOAD = 10
SPC = 11
DISP = ALL
STRESS = ALL
ELFORCE = ALL
SPCFORCE = ALL
BEGIN BULK
PARAM,GRDPNT,1
GRID    1       0       0.000+000.000+000.000+00
GRID    2       0       0.000+000.000+007.000000
GRID    3       0       0.000+001.5000000.000+00
GRID    4       0       0.000+001.5000007.000000
GRID    5       0       3.0000000.000+000.000+00
GRID    6       0       3.0000000.000+007.000000
GRID    7       0       3.0000001.5000000.000+00
GRID    8       0       3.0000001.5000007.000000
GRID    9       0       0.000+000.000+0014.00000
GRID    10      0       0.000+001.50000014.00000
GRID    11      0       3.0000000.000+0014.00000
GRID    12      0       3.0000001.50000014.00000
GRID    13      0       0.000+000.000+0021.00000
GRID    14      0       0.000+001.50000021.00000
GRID    15      0       3.0000000.000+0021.00000
GRID    16      0       3.0000001.50000021.00000
GRID    17      0       0.000+000.000+0028.00000
GRID    18      0       0.000+001.50000028.00000
GRID    19      0       3.0000000.000+0028.00000
GRID    20      0       3.0000001.50000028.00000
$ ... 90 like lines cut
CROD    61      15      1       61      
CROD    62      15      61      2       
CROD    65      14      3       62      
CROD    66      14      62      4       
CROD    68      10      5       63      
CROD    69      10      63      6       
CROD    71      24      3       7       
CROD    73      24      4       8       
CROD    75      9       7       64      
CROD    76      9       64      8       
CROD    77      15      2       65      
CROD    78      15      65      9       
CROD    80      14      4       66      
CROD    81      14      66      10      
CROD    82      10      6       67      
CROD    83      10      67      11      
CROD    85      24      10      12      
CROD    87      9       8       68      
CROD    88      9       68      12      
CROD    89      15      9       69      
$ ... 99 like lines cut
CTRIA3  239     17      1       61      3       
CTRIA3  240     17      3       61      62      
CTRIA3  241     17      61      2       62      
CTRIA3  242     17      62      2       4       
CTRIA3  243     5       1       5       61      
CTRIA3  244     5       61      5       63      
CTRIA3  245     5       61      63      2       
CTRIA3  246     5       2       63      6       
CTRIA3  247     18      1       3       5       
CTRIA3  248     18      5       3       7       
CTRIA3  249     19      2       6       4       
CTRIA3  250     19      6       8       4       
CTRIA3  251     4       3       62      7       
CTRIA3  252     4       62      64      7       
CTRIA3  253     4       62      4       64      
CTRIA3  254     4       4       8       64      
CTRIA3  255     16      5       7       63      
CTRIA3  256     16      7       64      63      
CTRIA3  257     16      63      64      6       
CTRIA3  258     16      64      8       6       
$ ... 288 like lines cut
MAT1    1       4.440+05                5.420-03
MAT1    2       4.440+02                0.
MAT8    3       4.440+054.440+050.3     2.980+04                5.420-03
MAT8    4       4.440+024.440+020.3     2.980+03                0.
PROD    6       1       0.015625
PROD    7       1       0.015625
PROD    8       1       0.015625
PROD    9       1       0.015625
PROD    10      1       0.015625
PROD    11      1       0.015625
PROD    12      1       0.015625
PROD    13      1       0.015625
PROD    14      1       0.015625
PROD    15      1       0.015625
PROD    24      2       0.015625
PSHELL  16      3       0.0625
PSHELL  17      3       0.0625
PSHELL  1       3       0.125
PSHELL  2       4       0.125
PSHELL  3       4       0.125
PSHELL  4       4       0.125
PSHELL  5       3       0.125
PSHELL  18      3       0.125
PSHELL  19      3       0.125
PSHELL  20      3       0.125
PSHELL  21      3       0.125
PSHELL  22      3       0.125
PSHELL  23      3       0.125
FORCE   10      47              -20.    0.      0.      1.
SPC1    11      123     1       3       5       7       25      27        
        37      39      49      51
SPC1    11      456     1       THRU    110
ENDDATA
