$ NASTRAN input file created by the Patran 2016 input file translator on
$  August    22, 2022 at 19:52:19.
$ Direct Text Input for Nastran System Cell Section
$ Direct Text Input for File Management Section
$ Direct Text Input for Executive Control
$ Linear Static Analysis, Database
SOL 101
CEND
$ Direct Text Input for Global Case Control Data
TITLE = MSC.Nastran job created on 22-Aug-22 at 19:49:21
SUBTITLE = d173grav
ECHO = NONE
MPC = 270002
SUBCASE 1
   TITLE=FEM ANALYSIS
   SUBTITLE=CASE.SC1
   SPC = 2
   LOAD = 203
   DISPLACEMENT(PLOT,SORT1,REAL)=ALL
   STRESS(PLOT,SORT1,REAL,VONMISES,BILIN)=ALL
   FORCE(PLOT,SORT1,REAL,BILIN)=ALL
   GPFORCE(PRINT,PLOT)=ALL
   ESE(PRINT,PLOT)=ALL
$ Direct Text Input for this Subcase
SUBCASE 2
   TITLE=FEM ANALYSIS
   SUBTITLE=CASE.SC2
   SPC = 2
   LOAD = 205
   DISPLACEMENT(PLOT,SORT1,REAL)=ALL
   STRESS(PLOT,SORT1,REAL,VONMISES,BILIN)=ALL
   FORCE(PLOT,SORT1,REAL,BILIN)=ALL
   GPFORCE(PRINT,PLOT)=ALL
   ESE(PRINT,PLOT)=ALL
$ Direct Text Input for this Subcase
BEGIN BULK
$ Direct Text Input for Bulk Data
PARAM    POST    0
PARAM   PRTMAXIM YES
PARAM   GRDPNT  1
$ Elements and Element Properties for region : bar123
PBAR     61      101    254.469 5153.   5153.   10306.
        9.                      9.      -9.                     -9.
        .9      .9
$ Pset: "bar123" will be imported as: "pbar.61"
CBAR     274     61      25      36     1.      1.       0.
CBAR     358     61      8       23     1.      1.       0.
CBAR     360     61      9       24     1.      1.       0.
CBAR     364     61      11      26     1.      1.       0.
$ Elements and Element Properties for region : pcomp.1
$ Composite Property Reference Material: pcomp.1
$ Composite Material Description :
PCOMP    1      -1.8            10000.   HILL
         201    .24     45.      YES     201    .24     -45.     YES
         201    .24      0.      YES     201    .12     90.      YES
         201    .24      0.      YES     201    .24     45.      YES
         201    .24     -45.     YES     201    .12      0.      YES
         201    .12     90.      YES     201    .12     90.      YES
         201    .12      0.      YES     201    .24     -45.     YES
         201    .24     45.      YES     201    .24      0.      YES
         201    .12     90.      YES     201    .24      0.      YES
         201    .24     -45.     YES     201    .24     45.      YES
$ Pset: "pcomp.1" will be imported as: "pcomp.1"
CTRIA3   1       1       8       23      6      -.273258 0.
CTRIA3   2       1       24      35      23     -.233724 0.
CQUAD4   3       1       23      8       9       24     -.148584 0.
$ Elements and Element Properties for region : pcomp.2
$ Composite Property Reference Material: pcomp.2
$ Composite Material Description :
PCOMP    2      -3.8            10000.   HILL
         201    .24     45.      YES     201    .24     -45.     YES
         201    .24      0.      YES     201    .12     90.      YES
         201    .24      0.      YES     201    .24     45.      YES
         201    .24     -45.     YES     201    .12      0.      YES
         201    .12     90.      YES     201    .12     90.      YES
         201    .12      0.      YES     201    .24     -45.     YES
         201    .24     45.      YES     201    .24      0.      YES
         201    .12     90.      YES     201    .24      0.      YES
         201    .24     -45.     YES     201    .04     45.      YES
$ Pset: "pcomp.2" will be imported as: "pcomp.2"
CQUAD4   8       2       36      25      26      37     .01735   0.
CQUAD4   9       2       37      26      27      38     .08092   0.
$ Elements and Element Properties for region : pcomp.3
$ Composite Property Reference Material: pcomp.3
$ Composite Material Description :
PCOMP    3      -1.8            10000.   HILL
         201    .24     45.      YES     201    .24     -45.     YES
         201    .24      0.      YES     201    .12     90.      YES
         201    .24      0.      YES     201    .24     45.      YES
         201    .24     -45.     YES     201    .12      0.      YES
         201    .12     90.      YES     201    .12     90.      YES
         201    .12      0.      YES     201    .24     -45.     YES
         201    .24     45.      YES     201    .24      0.      YES
         201    .12     90.      YES     201    .24      0.      YES
         201    .24     -45.     YES     201    .24     45.      YES
$ Pset: "pcomp.3" will be imported as: "pcomp.3"
CQUAD4   10      3       27      12      13      28     .06023   0.
CQUAD4   11      3       28      13      14      29     .04067   0.
CQUAD4   12      3       38      27      28      39     .0703988 0.
CQUAD4   13      3       39      28      29      40     .04674   0.
$ Elements and Element Properties for region : pcomp.4
$ Composite Property Reference Material: pcomp.4
$ Composite Material Description :
PCOMP    4      -1.56           10000.   HILL
         201    .24     45.      YES     201    .24     -45.     YES
         201    .24      0.      YES     201    .12     90.      YES
         201    .24      0.      YES     201    .12     45.      YES
         201    .12     -45.     YES     201    .12      0.      YES
         201    .12     90.      YES     201    .12     90.      YES
         201    .12      0.      YES     201    .12     -45.     YES
         201    .12     45.      YES     201    .24      0.      YES
         201    .12     90.      YES     201    .24      0.      YES
         201    .24     -45.     YES     201    .24     45.      YES
$ Pset: "pcomp.4" will be imported as: "pcomp.4"
CTRIA3   15      4       47      56      46     -.140161 0.
CQUAD4   16      4       46      36      37      47     -.0583   0.
CQUAD4   17      4       47      37      38      48     .06089   0.
CQUAD4   18      4       56      47      48      57      0.      0.
$ Elements and Element Properties for region : pcomp.5
$ Composite Property Reference Material: pcomp.5
$ Composite Material Description :
PCOMP    5      -1.56           10000.   HILL
         201    .24     45.      YES     201    .24     -45.     YES
         201    .24      0.      YES     201    .12     90.      YES
         201    .24      0.      YES     201    .12     45.      YES
         201    .12     -45.     YES     201    .12      0.      YES
         201    .12     90.      YES     201    .12     90.      YES
         201    .12      0.      YES     201    .12     -45.     YES
         201    .12     45.      YES     201    .24      0.      YES
         201    .12     90.      YES     201    .24      0.      YES
         201    .24     -45.     YES     201    .24     45.      YES
$ Pset: "pcomp.5" will be imported as: "pcomp.5"
CQUAD4   19      5       48      38      39      49     .08389   0.
CQUAD4   20      5       49      39      40      50     .05549   0.
CQUAD4   21      5       57      48      49      58     .09346   0.
CQUAD4   22      5       58      49      50      59     .0692    0.
$ Elements and Element Properties for region : pcomp.6
$ Composite Property Reference Material: pcomp.6
$ Composite Material Description :
PCOMP    6      -1.32           10000.   HILL
         201    .24     45.      YES     201    .24     -45.     YES
         201    .12      0.      YES     201    .12     90.      YES
         201    .12      0.      YES     201    .12     45.      YES
         201    .12     -45.     YES     201    .12      0.      YES
         201    .12     90.      YES     201    .12     90.      YES
         201    .12      0.      YES     201    .12     -45.     YES
         201    .12     45.      YES     201    .12      0.      YES
         201    .12     90.      YES     201    .12      0.      YES
         201    .24     -45.     YES     201    .24     45.      YES
$ Pset: "pcomp.6" will be imported as: "pcomp.6"
CTRIA3   23      6       57      68      56     -.0869   0.
CTRIA3   24      6       69      76      68     -.0283   0.
CQUAD4   25      6       68      57      58      69     .0647    0.
CQUAD4   26      6       69      58      59      70     .09229   0.
CQUAD4   27      6       76      69      70      77     .114149  0.
$ Elements and Element Properties for region : pcomp.7
$ Composite Property Reference Material: pcomp.7
$ Composite Material Description :
PCOMP    7      -1.08           10000.   HILL
         201    .12     45.      YES     201    .12     -45.     YES
         201    .12      0.      YES     201    .12     90.      YES
         201    .12      0.      YES     201    .12     45.      YES
         201    .12     -45.     YES     201    .12      0.      YES
         201    .12     90.      YES     201    .12     90.      YES
         201    .12      0.      YES     201    .12     -45.     YES
         201    .12     45.      YES     201    .12      0.      YES
         201    .12     90.      YES     201    .12      0.      YES
         201    .12     -45.     YES     201    .12     45.      YES
$ Pset: "pcomp.7" will be imported as: "pcomp.7"
CTRIA3   28      7       77      84      76     .02004   0.
CQUAD4   29      7       84      77      78      85     .107461  0.
CQUAD4   30      7       85      78      79      86     .03158   0.
CQUAD4   31      7       82      81      80      83     43.5599  0.
CQUAD4   32      7       83      80      76      84     42.7327  0.
$ Elements and Element Properties for region : pcomp.8
$ Composite Property Reference Material: pcomp.8
$ Composite Material Description :
PCOMP    8      -1.08           10000.   HILL
         201    .12     45.      YES     201    .12     -45.     YES
         201    .12      0.      YES     201    .12     90.      YES
         201    .12      0.      YES     201    .12     45.      YES
         201    .12     -45.     YES     201    .12      0.      YES
         201    .12     90.      YES     201    .12     90.      YES
         201    .12      0.      YES     201    .12     -45.     YES
         201    .12     45.      YES     201    .12      0.      YES
         201    .12     90.      YES     201    .12      0.      YES
         201    .12     -45.     YES     201    .12     45.      YES
$ Pset: "pcomp.8" will be imported as: "pcomp.8"
CTRIA3   33      8       18      5       6      .98636   0.
CQUAD4   34      8       19      7       5       18     2.15721  0.
CQUAD4   35      8       31      19      18      30     2.15928  0.
CQUAD4   36      8       42      31      30      41     2.16432  0.
CQUAD4   37      8       30      18      6       23     .985128  0.
CQUAD4   38      8       41      30      23      35     .988058  0.
$ Elements and Element Properties for region : pcomp.9
$ Composite Property Reference Material: pcomp.9
$ Composite Material Description :
PCOMP    9      -1.08           10000.   HILL
         201    .12     45.      YES     201    .12     -45.     YES
         201    .12      0.      YES     201    .12     90.      YES
         201    .12      0.      YES     201    .12     45.      YES
         201    .12     -45.     YES     201    .12      0.      YES
         201    .12     90.      YES     201    .12     90.      YES
         201    .12      0.      YES     201    .12     -45.     YES
         201    .12     45.      YES     201    .12      0.      YES
         201    .12     90.      YES     201    .12      0.      YES
         201    .12     -45.     YES     201    .12     45.      YES
$ Pset: "pcomp.9" will be imported as: "pcomp.9"
CQUAD4   39      9       55      42      41      54     2.17008  0.
CQUAD4   40      9       64      55      54      63     2.17676  0.
CQUAD4   41      9       54      41      35      46     .991331  0.
CQUAD4   42      9       63      54      46      56     .995105  0.
$ Elements and Element Properties for region : pcomp.10
$ Composite Property Reference Material: pcomp.10
$ Composite Material Description :
PCOMP    10     -1.08           10000.   HILL
         201    .12     45.      YES     201    .12     -45.     YES
         201    .12      0.      YES     201    .12     90.      YES
         201    .12      0.      YES     201    .12     45.      YES
         201    .12     -45.     YES     201    .12      0.      YES
         201    .12     90.      YES     201    .12     90.      YES
         201    .12      0.      YES     201    .12     -45.     YES
         201    .12     45.      YES     201    .12      0.      YES
         201    .12     90.      YES     201    .12      0.      YES
         201    .12     -45.     YES     201    .12     45.      YES
$ Pset: "pcomp.10" will be imported as: "pcomp.10"
CQUAD4   43      10      72      64      63      71     2.1846   0.
CQUAD4   44      10      81      72      71      80     2.19315  0.
CQUAD4   45      10      71      63      56      68     .999985  0.
CQUAD4   46      10      80      71      68      76     1.00624  0.
$ Elements and Element Properties for region : pcomp.11
$ Composite Property Reference Material: pcomp.11
$ Composite Material Description :
PCOMP    11     -1.08           10000.   HILL
         201    .12     45.      YES     201    .12     -45.     YES
         201    .12      0.      YES     201    .12     90.      YES
         201    .12      0.      YES     201    .12     45.      YES
         201    .12     -45.     YES     201    .12      0.      YES
         201    .12     90.      YES     201    .12     90.      YES
         201    .12      0.      YES     201    .12     -45.     YES
         201    .12     45.      YES     201    .12      0.      YES
         201    .12     90.      YES     201    .12      0.      YES
         201    .12     -45.     YES     201    .12     45.      YES
$ Pset: "pcomp.11" will be imported as: "pcomp.11"
CQUAD4   47      11      20      15      16      21     .02694   0.
CQUAD4   48      11      21      16      17      22     .01908   0.
CQUAD4   49      11      32      20      21      33     .02852   0.
CQUAD4   50      11      43      32      33      44     .0311    0.
CQUAD4   51      11      33      21      22      34     .01896   0.
CQUAD4   52      11      44      33      34      45     .01904   0.
$ Elements and Element Properties for region : pcomp.12
$ Composite Property Reference Material: pcomp.12
$ Composite Material Description :
PCOMP    12     -1.08           10000.   HILL
         201    .12     45.      YES     201    .12     -45.     YES
         201    .12      0.      YES     201    .12     90.      YES
         201    .12      0.      YES     201    .12     45.      YES
         201    .12     -45.     YES     201    .12      0.      YES
         201    .12     90.      YES     201    .12     90.      YES
         201    .12      0.      YES     201    .12     -45.     YES
         201    .12     45.      YES     201    .12      0.      YES
         201    .12     90.      YES     201    .12      0.      YES
         201    .12     -45.     YES     201    .12     45.      YES
$ Pset: "pcomp.12" will be imported as: "pcomp.12"
CQUAD4   53      12      60      51      52      61     .03614   0.
CQUAD4   54      12      61      52      53      62     .01927   0.
CQUAD4   55      12      65      60      61      66     .04439   0.
CQUAD4   56      12      73      65      66      74     .05964   0.
CQUAD4   57      12      66      61      62      67     .01984   0.
CQUAD4   58      12      74      66      67      75     .0213961 0.
$ Elements and Element Properties for region : pcomp.13
$ Composite Property Reference Material: pcomp.13
$ Composite Material Description :
PCOMP    13     -1.8            10000.   HILL
         201    .24     45.      YES     201    .24     -45.     YES
         201    .24      0.      YES     201    .12     90.      YES
         201    .24      0.      YES     201    .24     45.      YES
         201    .24     -45.     YES     201    .12      0.      YES
         201    .12     90.      YES     201    .12     90.      YES
         201    .12      0.      YES     201    .24     -45.     YES
         201    .24     45.      YES     201    .24      0.      YES
         201    .12     90.      YES     201    .24      0.      YES
         201    .24     -45.     YES     201    .24     45.      YES
$ Pset: "pcomp.13" will be imported as: "pcomp.13"
CTRIA3   59      13      94      109     92     -.044    0.
CTRIA3   60      13      110     121     109    -.0362   0.
CQUAD4   61      13      109     94      95      110    -.0179   0.
CQUAD4*  62              13              110             95
*        96              111            .006699          0.
CQUAD4*  63              13              121             110
*        111             122            -.00954          0.
$ Elements and Element Properties for region : pcomp.14
$ Composite Property Reference Material: pcomp.14
$ Composite Material Description :
PCOMP    14     -1.8            10000.   HILL
         201    .24     45.      YES     201    .24     -45.     YES
         201    .24      0.      YES     201    .12     90.      YES
         201    .24      0.      YES     201    .24     45.      YES
         201    .24     -45.     YES     201    .12      0.      YES
         201    .12     90.      YES     201    .12     90.      YES
         201    .12      0.      YES     201    .24     -45.     YES
         201    .24     45.      YES     201    .24      0.      YES
         201    .12     90.      YES     201    .24      0.      YES
         201    .24     -45.     YES     201    .24     45.      YES
$ Pset: "pcomp.14" will be imported as: "pcomp.14"
CQUAD4   64      14      111     96      97      112    .02074   0.
CQUAD4   65      14      112     97      98      113    .01055   0.
CQUAD4   66      14      122     111     112     123    .0151963 0.
CQUAD4   67      14      123     112     113     124    .02059   0.
$ Elements and Element Properties for region : pcomp.15
$ Composite Property Reference Material: pcomp.15
$ Composite Material Description :
PCOMP    15     -1.8            10000.   HILL
         201    .24     45.      YES     201    .24     -45.     YES
         201    .24      0.      YES     201    .12     90.      YES
         201    .24      0.      YES     201    .24     45.      YES
         201    .24     -45.     YES     201    .12      0.      YES
         201    .12     90.      YES     201    .12     90.      YES
         201    .12      0.      YES     201    .24     -45.     YES
         201    .24     45.      YES     201    .24      0.      YES
         201    .12     90.      YES     201    .24      0.      YES
         201    .24     -45.     YES     201    .24     45.      YES
$ Pset: "pcomp.15" will be imported as: "pcomp.15"
CQUAD4*  68              15              113             98
*        99              114            -.00595          0.
CQUAD4   69      15      114     99      100     115    -.0126   0.
CQUAD4   70      15      124     113     114     125     0.      0.
CQUAD4   71      15      125     114     115     126    -.0116   0.
$ Elements and Element Properties for region : pcomp.16
$ Composite Property Reference Material: pcomp.16
$ Composite Material Description :
PCOMP    16     -1.56           10000.   HILL
         201    .24     45.      YES     201    .24     -45.     YES
         201    .24      0.      YES     201    .12     90.      YES
         201    .24      0.      YES     201    .12     45.      YES
         201    .12     -45.     YES     201    .12      0.      YES
         201    .12     90.      YES     201    .12     90.      YES
         201    .12      0.      YES     201    .12     -45.     YES
         201    .12     45.      YES     201    .24      0.      YES
         201    .12     90.      YES     201    .24      0.      YES
         201    .24     -45.     YES     201    .24     45.      YES
$ Pset: "pcomp.16" will be imported as: "pcomp.16"
CTRIA3   72      16      122     132     121    -.0278   0.
CTRIA3   73      16      133     142     132    -.0183   0.
CQUAD4   74      16      132     122     123     133    7.074-4  0.
CQUAD4   75      16      133     123     124     134    .02336   0.
CQUAD4   76      16      142     133     134     143    .01338   0.
$ Elements and Element Properties for region : pcomp.17
$ Composite Property Reference Material: pcomp.17
$ Composite Material Description :
PCOMP    17     -1.56           10000.   HILL
         201    .24     45.      YES     201    .24     -45.     YES
         201    .24      0.      YES     201    .12     90.      YES
         201    .24      0.      YES     201    .12     45.      YES
         201    .12     -45.     YES     201    .12      0.      YES
         201    .12     90.      YES     201    .12     90.      YES
         201    .12      0.      YES     201    .12     -45.     YES
         201    .12     45.      YES     201    .24      0.      YES
         201    .12     90.      YES     201    .24      0.      YES
         201    .24     -45.     YES     201    .24     45.      YES
$ Pset: "pcomp.17" will be imported as: "pcomp.17"
CQUAD4   77      17      134     124     125     135    .0103411 0.
CQUAD4*  78              17              135             125
*        126             136            -.00907          0.
CQUAD4   79      17      143     134     135     144    .02469   0.
CQUAD4   80      17      144     135     136     145    -.0034   0.
$ Elements and Element Properties for region : pcomp.18
$ Composite Property Reference Material: pcomp.18
$ Composite Material Description :
PCOMP    18     -1.32           10000.   HILL
         201    .24     45.      YES     201    .24     -45.     YES
         201    .12      0.      YES     201    .12     90.      YES
         201    .12      0.      YES     201    .12     45.      YES
         201    .12     -45.     YES     201    .12      0.      YES
         201    .12     90.      YES     201    .12     90.      YES
         201    .12      0.      YES     201    .12     -45.     YES
         201    .12     45.      YES     201    .12      0.      YES
         201    .12     90.      YES     201    .12      0.      YES
         201    .24     -45.     YES     201    .24     45.      YES
$ Pset: "pcomp.18" will be imported as: "pcomp.18"
CTRIA3*  81              18              143             154
*        142            -.00819          0.
CTRIA3*  82              18              155             162
*        154            .002099          0.
CQUAD4   83      18      154     143     144     155    .02743   0.
CQUAD4   84      18      155     144     145     156    .01048   0.
CQUAD4   85      18      162     155     156     163    .03261   0.
$ Elements and Element Properties for region : pcomp.19
$ Composite Property Reference Material: pcomp.19
$ Composite Material Description :
PCOMP    19     -1.08           10000.   HILL
         201    .12     45.      YES     201    .12     -45.     YES
         201    .12      0.      YES     201    .12     90.      YES
         201    .12      0.      YES     201    .12     45.      YES
         201    .12     -45.     YES     201    .12      0.      YES
         201    .12     90.      YES     201    .12     90.      YES
         201    .12      0.      YES     201    .12     -45.     YES
         201    .12     45.      YES     201    .12      0.      YES
         201    .12     90.      YES     201    .12      0.      YES
         201    .12     -45.     YES     201    .12     45.      YES
$ Pset: "pcomp.19" will be imported as: "pcomp.19"
CTRIA3*  86              19              163             170
*        162            .004903          0.
CQUAD4   87      19      170     163     164     171    .0137073 0.
CQUAD4*  88              19              171             164
*        165             172            -.00181          0.
CQUAD4   89      19      168     167     166     169    43.9435  0.
CQUAD4   90      19      169     166     162     170    42.8373  0.
$ Elements and Element Properties for region : pcomp.20
$ Composite Property Reference Material: pcomp.20
$ Composite Material Description :
PCOMP    20     -1.08           10000.   HILL
         201    .12     45.      YES     201    .12     -45.     YES
         201    .12      0.      YES     201    .12     90.      YES
         201    .12      0.      YES     201    .12     45.      YES
         201    .12     -45.     YES     201    .12      0.      YES
         201    .12     90.      YES     201    .12     90.      YES
         201    .12      0.      YES     201    .12     -45.     YES
         201    .12     45.      YES     201    .12      0.      YES
         201    .12     90.      YES     201    .12      0.      YES
         201    .12     -45.     YES     201    .12     45.      YES
$ Pset: "pcomp.20" will be imported as: "pcomp.20"
CTRIA3   91      20      104     91      92     1.06971  0.
CQUAD4   92      20      105     93      91      104    2.24701  0.
CQUAD4   93      20      117     105     104     116    2.24772  0.
CQUAD4   94      20      128     117     116     127    2.2495   0.
CQUAD4   95      20      116     104     92      109    1.06941  0.
CQUAD4   96      20      127     116     109     121    1.0703   0.
$ Elements and Element Properties for region : pcomp.21
$ Composite Property Reference Material: pcomp.21
$ Composite Material Description :
PCOMP    21     -1.08           10000.   HILL
         201    .12     45.      YES     201    .12     -45.     YES
         201    .12      0.      YES     201    .12     90.      YES
         201    .12      0.      YES     201    .12     45.      YES
         201    .12     -45.     YES     201    .12      0.      YES
         201    .12     90.      YES     201    .12     90.      YES
         201    .12      0.      YES     201    .12     -45.     YES
         201    .12     45.      YES     201    .12      0.      YES
         201    .12     90.      YES     201    .12      0.      YES
         201    .12     -45.     YES     201    .12     45.      YES
$ Pset: "pcomp.21" will be imported as: "pcomp.21"
CQUAD4   97      21      141     128     127     140    2.25151  0.
CQUAD4   98      21      150     141     140     149    2.25382  0.
CQUAD4   99      21      140     127     121     132    1.07134  0.
CQUAD4   100     21      149     140     132     142    1.07263  0.
$ Elements and Element Properties for region : pcomp.22
$ Composite Property Reference Material: pcomp.22
$ Composite Material Description :
PCOMP    22     -1.08           10000.   HILL
         201    .12     45.      YES     201    .12     -45.     YES
         201    .12      0.      YES     201    .12     90.      YES
         201    .12      0.      YES     201    .12     45.      YES
         201    .12     -45.     YES     201    .12      0.      YES
         201    .12     90.      YES     201    .12     90.      YES
         201    .12      0.      YES     201    .12     -45.     YES
         201    .12     45.      YES     201    .12      0.      YES
         201    .12     90.      YES     201    .12      0.      YES
         201    .12     -45.     YES     201    .12     45.      YES
$ Pset: "pcomp.22" will be imported as: "pcomp.22"
CQUAD4   101     22      158     150     149     157    2.2565   0.
CQUAD4   102     22      167     158     157     166    2.25932  0.
CQUAD4   103     22      157     149     142     154    1.07438  0.
CQUAD4   104     22      166     157     154     162    1.07667  0.
$ Elements and Element Properties for region : pcomp.23
$ Composite Property Reference Material: pcomp.23
$ Composite Material Description :
PCOMP    23     -1.08           10000.   HILL
         201    .12     45.      YES     201    .12     -45.     YES
         201    .12      0.      YES     201    .12     90.      YES
         201    .12      0.      YES     201    .12     45.      YES
         201    .12     -45.     YES     201    .12      0.      YES
         201    .12     90.      YES     201    .12     90.      YES
         201    .12      0.      YES     201    .12     -45.     YES
         201    .12     45.      YES     201    .12      0.      YES
         201    .12     90.      YES     201    .12      0.      YES
         201    .12     -45.     YES     201    .12     45.      YES
$ Pset: "pcomp.23" will be imported as: "pcomp.23"
CQUAD4*  105             23              106             101
*        102             107            -.00946          0.
CQUAD4*  106             23              107             102
*        103             108            .002183          0.
CQUAD4   107     23      118     106     107     119    -.0104   0.
CQUAD4   108     23      129     118     119     130    -.0112   0.
CQUAD4*  109             23              119             107
*        108             120            .001956          0.
CQUAD4*  110             23              130             119
*        120             131            .001839          0.
$ Elements and Element Properties for region : pcomp.24
$ Composite Property Reference Material: pcomp.24
$ Composite Material Description :
PCOMP    24     -1.08           10000.   HILL
         201    .12     45.      YES     201    .12     -45.     YES
         201    .12      0.      YES     201    .12     90.      YES
         201    .12      0.      YES     201    .12     45.      YES
         201    .12     -45.     YES     201    .12      0.      YES
         201    .12     90.      YES     201    .12     90.      YES
         201    .12      0.      YES     201    .12     -45.     YES
         201    .12     45.      YES     201    .12      0.      YES
         201    .12     90.      YES     201    .12      0.      YES
         201    .12     -45.     YES     201    .12     45.      YES
$ Pset: "pcomp.24" will be imported as: "pcomp.24"
CQUAD4   111     24      146     137     138     147    -.0121   0.
CQUAD4*  112             24              147             138
*        139             148            .001611          0.
CQUAD4   113     24      151     146     147     152    -.012    0.
CQUAD4*  114             24              159             151
*        152             160            -.00876          0.
CQUAD4*  115             24              152             147
*        148             153            .001254          0.
CQUAD4   116     24      160     152     153     161    6.732-4  0.
$ Elements and Element Properties for region : prod.41
PROD     41      101    300.
$ Pset: "prod.41" will be imported as: "prod.41"
CROD     258     41      6       23
CROD     259     41      23      35
CROD     260     41      35      46
CROD     261     41      92      109
CROD     262     41      109     121
CROD     263     41      121     132
$ Elements and Element Properties for region : prod.42
PROD     42      101    170.
$ Pset: "prod.42" will be imported as: "prod.42"
CROD     264     42      46      56
CROD     265     42      56      68
CROD     266     42      132     142
CROD     267     42      142     154
$ Elements and Element Properties for region : prod.43
PROD     43      101    150.
$ Pset: "prod.43" will be imported as: "prod.43"
CROD     268     43      68      76
CROD     269     43      76      84
CROD     270     43      154     162
CROD     271     43      162     170
$ Elements and Element Properties for region : prod.44
PROD     44      102    300.
$ Pset: "prod.44" will be imported as: "prod.44"
CROD     272     44      10      25
CROD     273     44      96      111
$ Elements and Element Properties for region : prod.45
PROD     45      102    280.
$ Pset: "prod.45" will be imported as: "prod.45"
CROD     275     45      111     122
$ Elements and Element Properties for region : prod.46
PROD     46      102    250.
$ Pset: "prod.46" will be imported as: "prod.46"
CROD     276     46      36      46
CROD     277     46      122     132
$ Elements and Element Properties for region : prod.47
PROD     47      102    300.
$ Pset: "prod.47" will be imported as: "prod.47"
CROD     278     47      12      27
CROD     279     47      98      113
$ Elements and Element Properties for region : prod.48
PROD     48      102    280.
$ Pset: "prod.48" will be imported as: "prod.48"
CROD     280     48      27      38
CROD     281     48      113     124
$ Elements and Element Properties for region : prod.49
PROD     49      102    250.
$ Pset: "prod.49" will be imported as: "prod.49"
CROD     282     49      38      48
CROD     283     49      124     134
$ Elements and Element Properties for region : prod.50
PROD     50      102    200.
$ Pset: "prod.50" will be imported as: "prod.50"
CROD     284     50      48      57
CROD     285     50      57      68
CROD     286     50      134     143
CROD     287     50      143     154
$ Elements and Element Properties for region : prod.51
PROD     51      101    220.
$ Pset: "prod.51" will be imported as: "prod.51"
CROD     288     51      14      29
CROD     289     51      29      40
CROD     290     51      40      50
CROD     291     51      100     115
CROD     292     51      115     126
CROD     293     51      126     136
$ Elements and Element Properties for region : prod.52
PROD     52      101    180.
$ Pset: "prod.52" will be imported as: "prod.52"
CROD     306     52      50      59
CROD     307     52      59      70
CROD     308     52      70      77
CROD     309     52      77      84
CROD     310     52      136     145
CROD     311     52      145     156
CROD     312     52      156     163
CROD     313     52      163     170
$ Elements and Element Properties for region : prod.53
PROD     53      101    160.
$ Pset: "prod.53" will be imported as: "prod.53"
CROD     314     53      15      20
CROD     315     53      20      32
CROD     316     53      32      43
CROD     317     53      101     106
CROD     318     53      106     118
CROD     319     53      118     129
$ Elements and Element Properties for region : prod.54
PROD     54      101    160.
$ Pset: "prod.54" will be imported as: "prod.54"
CROD     320     54      51      60
CROD     321     54      60      65
CROD     322     54      65      73
CROD     323     54      137     146
CROD     324     54      146     151
CROD     325     54      151     159
$ Elements and Element Properties for region : prod.55
PROD     55      101    280.
$ Pset: "prod.55" will be imported as: "prod.55"
CROD     420     55      6       8
CROD     421     55      8       9
CROD     422     55      9       10
CROD     423     55      92      94
CROD     424     55      94      95
CROD     425     55      95      96
$ Elements and Element Properties for region : prod.56
PROD     56      101    300.
$ Pset: "prod.56" will be imported as: "prod.56"
CROD     426     56      10      11
CROD     427     56      11      12
CROD     428     56      96      97
CROD     429     56      97      98
$ Elements and Element Properties for region : prod.57
PROD     57      101    250.
$ Pset: "prod.57" will be imported as: "prod.57"
CROD     430     57      12      13
CROD     431     57      13      14
CROD     432     57      98      99
CROD     433     57      99      100
$ Elements and Element Properties for region : prod.58
PROD     58      101    240.
$ Pset: "prod.58" will be imported as: "prod.58"
CROD     434     58      46      47
CROD     435     58      47      48
CROD     436     58      48      49
CROD     437     58      49      50
CROD     438     58      132     133
CROD     439     58      133     134
CROD     440     58      134     135
CROD     441     58      135     136
$ Elements and Element Properties for region : prod.59
PROD     59      101    160.
$ Pset: "prod.59" will be imported as: "prod.59"
CROD     442     59      76      77
CROD     443     59      77      78
CROD     444     59      78      79
CROD     445     59      162     163
CROD     446     59      163     164
CROD     447     59      164     165
$ Elements and Element Properties for region : prod.60
PROD     60      101    160.
$ Pset: "prod.60" will be imported as: "prod.60"
CROD     448     60      15      16
CROD     449     60      16      17
CROD     450     60      101     102
CROD     451     60      102     103
CROD     452     60      43      44
CROD     453     60      44      45
CROD     454     60      129     130
CROD     455     60      130     131
CROD     456     60      51      52
CROD     457     60      52      53
CROD     458     60      137     138
CROD     459     60      138     139
CROD     460     60      73      74
CROD     461     60      74      75
CROD     462     60      159     160
CROD     463     60      160     161
$ Elements and Element Properties for region : prod.109
PROD     109     101    50.
$ Pset: "prod.109" will be imported as: "prod.109"
CROD     326     109     7       19
CROD     327     109     19      31
CROD     328     109     31      42
CROD     329     109     42      55
CROD     330     109     55      64
CROD     331     109     64      72
CROD     332     109     72      81
CROD     333     109     81      82
CROD     334     109     93      105
CROD     335     109     105     117
CROD     336     109     117     128
CROD     337     109     128     141
CROD     338     109     141     150
CROD     339     109     150     158
CROD     340     109     158     167
CROD     341     109     167     168
$ Elements and Element Properties for region : prod.110
PROD     110     101    70.
$ Pset: "prod.110" will be imported as: "prod.110"
CROD     342     110     5       18
CROD     343     110     18      30
CROD     344     110     30      41
CROD     345     110     41      54
CROD     346     110     54      63
CROD     347     110     63      71
CROD     348     110     71      80
CROD     349     110     80      83
CROD     350     110     91      104
CROD     351     110     104     116
CROD     352     110     116     127
CROD     353     110     127     140
CROD     354     110     140     149
CROD     355     110     149     157
CROD     356     110     157     166
CROD     357     110     166     169
$ Elements and Element Properties for region : prod.111
PROD     111     101    80.
$ Pset: "prod.111" will be imported as: "prod.111"
CROD     359     111     94      109
CROD     361     111     24      35
CROD     362     111     95      110
CROD     363     111     110     121
CROD     365     111     26      37
CROD     366     111     37      47
CROD     367     111     47      56
CROD     368     111     97      112
CROD     369     111     112     123
CROD     370     111     123     133
CROD     371     111     133     142
CROD     372     111     13      28
CROD     373     111     28      39
CROD     374     111     39      49
CROD     375     111     49      58
CROD     376     111     58      69
CROD     377     111     69      76
CROD     378     111     99      114
CROD     379     111     114     125
CROD     380     111     125     135
$ ... 5 like lines cut
$ Elements and Element Properties for region : prod.112
PROD     112     101    80.
$ Pset: "prod.112" will be imported as: "prod.112"
CROD     386     112     16      21
CROD     387     112     21      33
CROD     388     112     33      44
CROD     389     112     102     107
CROD     390     112     107     119
CROD     391     112     119     130
CROD     392     112     52      61
CROD     393     112     61      66
CROD     394     112     66      74
CROD     395     112     138     147
CROD     396     112     147     152
CROD     397     112     152     160
$ Elements and Element Properties for region : prod.113
PROD     113     101    50.
$ Pset: "prod.113" will be imported as: "prod.113"
CROD     398     113     17      22
CROD     399     113     22      34
CROD     400     113     34      45
CROD     401     113     103     108
CROD     402     113     108     120
CROD     403     113     120     131
CROD     404     113     53      62
CROD     405     113     62      67
CROD     406     113     67      75
CROD     407     113     139     148
CROD     408     113     148     153
CROD     409     113     153     161
CROD     410     113     79      86
CROD     411     113     165     172
$ Elements and Element Properties for region : prod.114
PROD     114     101    200.
$ Pset: "prod.114" will be imported as: "prod.114"
CROD     412     114     1       6
CROD     413     114     87      92
$ Elements and Element Properties for region : prod.115
PROD     115     102    300.
$ Pset: "prod.115" will be imported as: "prod.115"
CROD     414     115     2       10
CROD     415     115     88      96
$ Elements and Element Properties for region : prod.116
PROD     116     102    300.
$ Pset: "prod.116" will be imported as: "prod.116"
CROD     416     116     3       12
CROD     417     116     89      98
$ Elements and Element Properties for region : prod.117
PROD     117     101    220.
$ Pset: "prod.117" will be imported as: "prod.117"
CROD     418     117     4       14
CROD     419     117     90      100
$ Elements and Element Properties for region : prod.118
PROD     118     101    80.
$ Pset: "prod.118" will be imported as: "prod.118"
CROD     464     118     7       5
CROD     465     118     5       6
CROD     466     118     93      91
CROD     467     118     91      92
CROD     468     118     23      24
CROD     469     118     24      25
CROD     470     118     25      26
CROD     471     118     26      27
CROD     472     118     27      28
CROD     473     118     28      29
CROD     474     118     109     110
CROD     475     118     110     111
CROD     476     118     111     112
CROD     477     118     112     113
CROD     478     118     113     114
CROD     479     118     114     115
CROD     480     118     35      36
CROD     481     118     36      37
CROD     482     118     37      38
CROD     483     118     38      39
$ ... 32 like lines cut
$ Elements and Element Properties for region : prod.119
PROD     119     101    50.
$ Pset: "prod.119" will be imported as: "prod.119"
CROD     516     119     18      6
CROD     517     119     19      18
CROD     518     119     104     92
CROD     519     119     105     104
CROD     520     119     30      23
CROD     521     119     31      30
CROD     522     119     116     109
CROD     523     119     117     116
CROD     524     119     41      35
CROD     525     119     42      41
CROD     526     119     127     121
CROD     527     119     128     127
CROD     528     119     54      46
CROD     529     119     55      54
CROD     530     119     140     132
CROD     531     119     141     140
CROD     532     119     63      56
CROD     533     119     64      63
CROD     534     119     149     142
CROD     535     119     150     149
$ ... 16 like lines cut
$ Elements and Element Properties for region : prod.120
PROD     120     101    10.
$ Pset: "prod.120" will be imported as: "prod.120"
CROD     552     120     7       93
CROD     553     120     19      105
CROD     554     120     31      117
CROD     555     120     42      128
CROD     556     120     55      141
CROD     557     120     64      150
CROD     558     120     72      158
CROD     559     120     81      167
CROD     560     120     82      168
CROD     561     120     5       91
CROD     562     120     18      104
CROD     563     120     30      116
CROD     564     120     41      127
CROD     565     120     54      140
CROD     566     120     63      149
CROD     567     120     71      157
CROD     568     120     80      166
CROD     569     120     83      169
CROD     570     120     6       92
CROD     571     120     23      109
$ ... 62 like lines cut
$ Elements and Element Properties for region : pshear.25
PSHEAR   25      101    2.5
$ Pset: "pshear.25" will be imported as: "pshear.25"
CSHEAR   117     25      92      109     23      6
CSHEAR   118     25      109     121     35      23
CSHEAR   119     25      121     132     46      35
$ Elements and Element Properties for region : pshear.26
PSHEAR   26      101    2.
$ Pset: "pshear.26" will be imported as: "pshear.26"
CSHEAR   120     26      132     142     56      46
CSHEAR   121     26      142     154     68      56
$ Elements and Element Properties for region : pshear.27
PSHEAR   27      101    1.8
$ Pset: "pshear.27" will be imported as: "pshear.27"
CSHEAR   122     27      154     162     76      68
CSHEAR   123     27      162     170     84      76
$ Elements and Element Properties for region : pshear.28
PSHEAR   28      101    3.
$ Pset: "pshear.28" will be imported as: "pshear.28"
CSHEAR   124     28      96      111     25      10
CSHEAR   125     28      111     122     36      25
CSHEAR   126     28      122     132     46      36
$ Elements and Element Properties for region : pshear.29
PSHEAR   29      101    3.
$ Pset: "pshear.29" will be imported as: "pshear.29"
CSHEAR   127     29      98      113     27      12
CSHEAR   128     29      113     124     38      27
CSHEAR   129     29      124     134     48      38
$ Elements and Element Properties for region : pshear.30
PSHEAR   30      101    2.5
$ Pset: "pshear.30" will be imported as: "pshear.30"
CSHEAR   130     30      134     143     57      48
CSHEAR   131     30      143     154     68      57
$ Elements and Element Properties for region : pshear.31
PSHEAR   31      101    2.5
$ Pset: "pshear.31" will be imported as: "pshear.31"
CSHEAR   132     31      100     115     29      14
CSHEAR   133     31      115     126     40      29
CSHEAR   134     31      126     136     50      40
$ Elements and Element Properties for region : pshear.32
PSHEAR   32      101    2.
$ Pset: "pshear.32" will be imported as: "pshear.32"
CSHEAR   135     32      136     145     59      50
CSHEAR   136     32      145     156     70      59
CSHEAR   137     32      156     163     77      70
CSHEAR   138     32      163     170     84      77
$ Elements and Element Properties for region : pshear.33
PSHEAR   33      101    2.
$ Pset: "pshear.33" will be imported as: "pshear.33"
CSHEAR   139     33      101     106     20      15
CSHEAR   140     33      106     118     32      20
CSHEAR   141     33      118     129     43      32
$ Elements and Element Properties for region : pshear.34
PSHEAR   34      101    2.
$ Pset: "pshear.34" will be imported as: "pshear.34"
CSHEAR   142     34      137     146     60      51
CSHEAR   143     34      146     151     65      60
CSHEAR   144     34      151     159     73      65
$ Elements and Element Properties for region : pshear.35
PSHEAR   35      101    3.
$ Pset: "pshear.35" will be imported as: "pshear.35"
CSHEAR   192     35      92      94      8       6
CSHEAR   193     35      94      95      9       8
CSHEAR   194     35      95      96      10      9
$ Elements and Element Properties for region : pshear.36
PSHEAR   36      101    3.
$ Pset: "pshear.36" will be imported as: "pshear.36"
CSHEAR   195     36      96      97      11      10
CSHEAR   196     36      97      98      12      11
$ Elements and Element Properties for region : pshear.37
PSHEAR   37      101    3.
$ Pset: "pshear.37" will be imported as: "pshear.37"
CSHEAR   197     37      98      99      13      12
CSHEAR   198     37      99      100     14      13
$ Elements and Element Properties for region : pshear.38
PSHEAR   38      101    2.5
$ Pset: "pshear.38" will be imported as: "pshear.38"
CSHEAR   199     38      132     133     47      46
CSHEAR   200     38      133     134     48      47
CSHEAR   201     38      134     135     49      48
CSHEAR   202     38      135     136     50      49
$ Elements and Element Properties for region : pshear.39
PSHEAR   39      101    2.
$ Pset: "pshear.39" will be imported as: "pshear.39"
CSHEAR   203     39      162     163     77      76
CSHEAR   204     39      163     164     78      77
CSHEAR   205     39      164     165     79      78
$ Elements and Element Properties for region : pshear.40
PSHEAR   40      101    2.
$ Pset: "pshear.40" will be imported as: "pshear.40"
CSHEAR   206     40      101     102     16      15
CSHEAR   207     40      102     103     17      16
CSHEAR   208     40      129     130     44      43
CSHEAR   209     40      130     131     45      44
CSHEAR   210     40      137     138     52      51
CSHEAR   211     40      138     139     53      52
CSHEAR   212     40      159     160     74      73
CSHEAR   213     40      160     161     75      74
$ Elements and Element Properties for region : pshear.101
PSHEAR   101     101    1.5
$ Pset: "pshear.101" will be imported as: "pshear.101"
CSHEAR   145     101     93      105     19      7
CSHEAR   146     101     105     117     31      19
CSHEAR   147     101     117     128     42      31
CSHEAR   148     101     128     141     55      42
CSHEAR   149     101     141     150     64      55
CSHEAR   150     101     150     158     72      64
CSHEAR   151     101     158     167     81      72
CSHEAR   152     101     167     168     82      81
$ Elements and Element Properties for region : pshear.102
PSHEAR   102     101    1.8
$ Pset: "pshear.102" will be imported as: "pshear.102"
CSHEAR   153     102     91      104     18      5
CSHEAR   154     102     104     116     30      18
CSHEAR   155     102     116     127     41      30
CSHEAR   156     102     127     140     54      41
CSHEAR   157     102     140     149     63      54
CSHEAR   158     102     149     157     71      63
CSHEAR   159     102     157     166     80      71
CSHEAR   160     102     166     169     83      80
$ Elements and Element Properties for region : pshear.103
PSHEAR   103     101    1.5
$ Pset: "pshear.103" will be imported as: "pshear.103"
CSHEAR   161     103     94      109     23      8
CSHEAR   162     103     95      110     24      9
CSHEAR   163     103     110     121     35      24
CSHEAR   164     103     97      112     26      11
CSHEAR   165     103     112     123     37      26
CSHEAR   166     103     123     133     47      37
CSHEAR   167     103     133     142     56      47
CSHEAR   168     103     99      114     28      13
CSHEAR   169     103     114     125     39      28
CSHEAR   170     103     125     135     49      39
CSHEAR   171     103     135     144     58      49
CSHEAR   172     103     144     155     69      58
CSHEAR   173     103     155     162     76      69
CSHEAR   174     103     164     171     85      78
CSHEAR   175     103     102     107     21      16
CSHEAR   176     103     107     119     33      21
CSHEAR   177     103     119     130     44      33
CSHEAR   178     103     138     147     61      52
CSHEAR   179     103     147     152     66      61
CSHEAR   180     103     152     160     74      66
$ Elements and Element Properties for region : pshear.104
PSHEAR   104     101    1.5
$ Pset: "pshear.104" will be imported as: "pshear.104"
CSHEAR   181     104     103     108     22      17
CSHEAR   182     104     108     120     34      22
CSHEAR   183     104     120     131     45      34
CSHEAR   184     104     139     148     62      53
CSHEAR   185     104     148     153     67      62
CSHEAR   186     104     153     161     75      67
CSHEAR   187     104     165     172     86      79
$ Elements and Element Properties for region : pshear.105
PSHEAR   105     101    2.5
$ Pset: "pshear.105" will be imported as: "pshear.105"
CSHEAR   188     105     87      92      6       1
CSHEAR   189     105     90      100     14      4
$ Elements and Element Properties for region : pshear.106
PSHEAR   106     101    3.
$ Pset: "pshear.106" will be imported as: "pshear.106"
CSHEAR   190     106     88      96      10      2
CSHEAR   191     106     89      98      12      3
$ Elements and Element Properties for region : pshear.107
PSHEAR   107     101    1.5
$ Pset: "pshear.107" will be imported as: "pshear.107"
CSHEAR   214     107     93      91      5       7
CSHEAR   215     107     91      92      6       5
CSHEAR   216     107     109     110     24      23
CSHEAR   217     107     110     111     25      24
CSHEAR   218     107     111     112     26      25
CSHEAR   219     107     112     113     27      26
CSHEAR   220     107     113     114     28      27
CSHEAR   221     107     114     115     29      28
CSHEAR   222     107     121     122     36      35
CSHEAR   223     107     122     123     37      36
CSHEAR   224     107     123     124     38      37
CSHEAR   225     107     124     125     39      38
CSHEAR   226     107     125     126     40      39
CSHEAR   227     107     142     143     57      56
CSHEAR   228     107     143     144     58      57
CSHEAR   229     107     144     145     59      58
CSHEAR   230     107     154     155     69      68
CSHEAR   231     107     155     156     70      69
CSHEAR   232     107     168     169     83      82
CSHEAR   233     107     169     170     84      83
$ ... 6 like lines cut
$ Elements and Element Properties for region : pshear.108
PSHEAR   108     101    1.5
$ Pset: "pshear.108" will be imported as: "pshear.108"
CSHEAR   240     108     104     92      6       18
CSHEAR   241     108     105     104     18      19
CSHEAR   242     108     116     109     23      30
CSHEAR   243     108     117     116     30      31
CSHEAR   244     108     127     121     35      41
CSHEAR   245     108     128     127     41      42
CSHEAR   246     108     140     132     46      54
CSHEAR   247     108     141     140     54      55
CSHEAR   248     108     149     142     56      63
CSHEAR   249     108     150     149     63      64
CSHEAR   250     108     157     154     68      71
CSHEAR   251     108     158     157     71      72
CSHEAR   252     108     166     162     76      80
CSHEAR   253     108     167     166     80      81
CSHEAR   254     108     107     108     22      21
CSHEAR   255     108     119     120     34      33
CSHEAR   256     108     147     148     62      61
CSHEAR   257     108     152     153     67      66
$ Elements and Element Properties for region : pshell1
PSHELL   62      101    6.1      101             101
$ Pset: "pshell1" will be imported as: "pshell.62"
CQUAD4   4       62      24      9       10      25      0.      0.
CQUAD4   5       62      35      24      25      36      0.      0.
CQUAD4   6       62      25      10      11      26      0.      0.
CQUAD4   7       62      26      11      12      27      0.      0.
CTRIA3   14      62      36      46      35      0.      0.
$ Elements and Element Properties for region : conm2
CONM2    1255    50      0      10.      0.      0.      0.
         0.      0.      0.      0.      0.      0.
CONM2    1256    59      0      10.      0.      0.      0.
         0.      0.      0.      0.      0.      0.
CONM2    1257    70      0      10.      0.      0.      0.
         0.      0.      0.      0.      0.      0.
CONM2    1258    77      0      10.      0.      0.      0.
         0.      0.      0.      0.      0.      0.
CONM2    1259    84      0      10.      0.      0.      0.
         0.      0.      0.      0.      0.      0.
CONM2    1260    78      0      10.      0.      0.      0.
         0.      0.      0.      0.      0.      0.
$ Referenced Material Records
$ Material Record : mat1.101
$ Description of Material :
MAT1     101    70000.  26315.8 .33     2.8-6
$ Material Record : mat1.102
$ Description of Material :
MAT1     102    110000. 41666.7 .32     4.45-6
$ Material Record : mat8.201
$ Description of Material :
MAT8     201    135000. 8800.   .3      4470.                   1.6-6
$ Multipoint Constraints of the Entire Model
MPCADD   270002  10001   20001   30001   40001   50001   60001   70001
         80001   90001   100001  110001  120001  130001  140001  150001
         160001  170001  180001  190001  200001  210001  220001  230001
         240001  250001  260001  270001
MPC      10001   15      2      -1.      14      2      1.
MPC      20001   20      1      -1.      29      1      1.
MPC      30001   20      2      -1.      29      2      1.
MPC      40001   20      3      -1.      29      3      1.
MPC      50001   43      1      -1.      50      1      1.
MPC      60001   43      2      -1.      50      2      1.
MPC      70001   51      1      -1.      50      1      1.
MPC      80001   51      2      -1.      50      2      1.
MPC      90001   60      1      -1.      59      1      1.
MPC      100001  60      2      -1.      59      2      1.
MPC      110001  60      3      -1.      59      3      1.
MPC      120001  73      1      -1.      77      1      1.
MPC      130001  73      2      -1.      77      2      1.
MPC      140001  101     1      -1.      100     1      1.
MPC      150001  101     2      -1.      100     2      1.
MPC      160001  106     1      -1.      115     1      1.
MPC      170001  106     2      -1.      115     2      1.
MPC      180001  106     3      -1.      115     3      1.
MPC      190001  129     1      -1.      136     1      1.
MPC      200001  129     2      -1.      136     2      1.
$ ... 7 like lines cut
$ Nodes of the Entire Model
GRID     1              550.    -86.22   0.
GRID     2              1188.39 -101.506 0.
GRID     3              1625.89 -81.8092 0.
GRID     4              2050.   -45.7676 0.
GRID     5              349.864 -56.5807120.
GRID     6              550.    -75.7841120.
GRID     7              125.    -15.8732120.
GRID     8              762.5   -88.755 120.
GRID     9              975.    -95.7988120.
GRID     10             1188.39 -97.2739120.
GRID     11             1407.14 -92.0617120.
GRID     12             1625.89 -80.3691120.
GRID     13             1844.64 -63.9431120.
GRID     14             2050.   -45.2122120.
GRID     15             2070.   -43.2601120.
GRID     16             2241.91 -25.8737120.
GRID     17             2480.   -5.9175 120.
GRID     18             447.7   -54.7902225.439
GRID     19             337.174 -14.6277339.355
GRID     20             2070.   -42.1619355.
$ ... 152 like lines cut
$ Loads for Load Case : CASE.SC1.SC1
SPCADD   2       1
LOAD     203    1.      1.       201
$ Displacement Constraints of Load Set : spc1.1
SPC1     1       123456  1
SPC1     1       123456  2
SPC1     1       123456  3
SPC1     1       123456  4
SPC1     1       1       10
SPC1     1       123456  87
SPC1     1       123456  88
SPC1     1       123456  89
SPC1     1       123456  90
SPC1     1       1       96
$ Loads for Load Case : CASE.SC2.SC2
LOAD     205    1.      1.       201    1.       206
$ Nodal Forces of Load Set : force.201
FORCE    201     5       0      2978.7   0.     -1.      0.
FORCE    201     6       0      2322.58  0.     -1.      0.
FORCE    201     7       0      2042.26  0.     -1.      0.
FORCE    201     8       0      1738.55  0.     -1.      0.
FORCE    201     9       0      3036.04  0.     -1.      0.
FORCE    201     10      0      2103.96  0.     -1.      0.
FORCE    201     11      0      1780.17  0.     -1.      0.
FORCE    201     12      0      1427.12  0.     -1.      0.
FORCE    201     13      0      1034.15  0.     -1.      0.
FORCE    201     14      0      716.032  0.     -1.      0.
FORCE    201     16      0      366.969  0.     -1.      0.
FORCE    201     17      0      60.7657  0.     -1.      0.
FORCE    201     18      0      4480.34  0.     -1.      0.
FORCE    201     19      0      3101.5   0.     -1.      0.
FORCE    201     20      0      330.629  0.     -1.      0.
FORCE    201     21      0      439.493  0.     -1.      0.
FORCE    201     22      0      110.093  0.     -1.      0.
FORCE    201     23      0      4071.99  0.     -1.      0.
FORCE    201     24      0      2699.53  0.     -1.      0.
FORCE    201     25      0      3310.43  0.     -1.      0.
$ ... 142 like lines cut
$ Gravity Loading of Load Set : inertial
GRAV     206     0      10.      0.     1.       0.
$ Referenced Coordinate Frames
ENDDATA 0962aa48
