PARAM,OMID,YES
$ ***************************************************************************
$   Written by : Femap with NX Nastran
$   Version    : 11.3.1
$   Translator : NX Nastran
$   From Model : 
$   Date       : Sun Apr 30 19:44:40 2017
$ ***************************************************************************
$
PARAM,POST,-1
PARAM,OGEOM,NO
PARAM,AUTOSPC,YES
PARAM,GRDPNT,0
CORD2C         1       0      0.      0.      0.      0.      0.      1.+FEMAPC1
+FEMAPC1      1.      0.      1.        
CORD2S         2       0      0.      0.      0.      0.      0.      1.+FEMAPC2
+FEMAPC2      1.      0.      1.        
$ Femap with NX Nastran Coordinate System 10 : csys_cyl
CORD2C        10       0      0.      0.      0.      0.      0.      1.+       
+             1.      0.      0.        
PARAM,G,.02
$ Femap with NX Nastran Load Set 3 : pressure
$111111122222222333333334444444455555555666666667777777788888888
RLOAD2       101     103                      1.            LOAD
PLOAD4       103  131001    .001
PLOAD4       103  131002    .001
PLOAD4       103  131003    .001
PLOAD4       103  131004    .001
PLOAD4       103  131005    .001
PLOAD4       103  131008    .001
PLOAD4       103  131009    .001
PLOAD4       103  131010    .001
PLOAD4       103  131011    .001
PLOAD4       103  131012    .001
PLOAD4       103  131015    .001
PLOAD4       103  131016    .001
PLOAD4       103  131017    .001
PLOAD4       103  131018    .001
PLOAD4       103  131019    .001
PLOAD4       103  131022    .001
PLOAD4       103  131023    .001
PLOAD4       103  131024    .001
PLOAD4       103  131025    .001
PLOAD4       103  131026    .001
$ ... 50 like lines cut
DLOAD          3      1.      1.     101                                
FREQ1          1      1.      .5      20
$ Femap with NX Nastran Constraint Set 3 : all_edges
SPC1           3     123     611
SPC1           3     123     616
SPC1           3     123     628
SPC1           3     123     629
SPC1           3     123     630
SPC1           3     123     631
SPC1           3     123     632
SPC1           3     123     637
SPC1           3     123     643
SPC1           3     123     657
SPC1           3     123     663
SPC1           3     123     665
SPC1           3     123     666
SPC1           3     123     667
SPC1           3     123     668
SPC1           3     123     669
SPC1           3     123     686
SPC1           3     123     687
SPC1           3     123     723
SPC1           3     123     724
$ ... 4 like lines cut
$ Femap with NX Nastran Property 131000 : Panel3.1
PSHELL    131000       1      1.       1               1              0.
$ Femap with NX Nastran Material 1 : Aluminum
MAT1           1   7100.2669.173     .33  2.83-6      0.      0.        
GRID         611      10   1000.-19.28191315.789       0
GRID         612      10   1000.-21.42711315.789      10
GRID         613      10   1000.-23.57291315.789      10
GRID         614      10   1000.-25.71811315.789      10
GRID         615      10999.9998-27.86091315.789      10
GRID         616      10   1000.    -30.1315.789      10
GRID         628      10   1000.    -30.   1500.      10
GRID         629      10   1000.    -30.1466.684      10
GRID         630      10   1000.    -30. 1434.21      10
GRID         631      10   1000.    -30.1394.736      10
GRID         632      10   1000.    -30.1355.263      10
GRID         633      10999.9999-27.85951355.263      10
GRID         634      10   1000.-25.71651355.263      10
GRID         635      10999.9999-23.57231355.263      10
GRID         636      10   1000.-21.42771355.263      10
GRID         637      10999.9999-19.28351355.263       0
GRID         639      10999.9999 -27.8591394.736      10
GRID         640      10   1000. -25.7161394.736      10
GRID         641      10   1000.-23.57211394.736      10
GRID         642      10   1000. -21.4281394.736      10
$ ... 28 like lines cut
CTRIA3         1  131000     633     632     616-131.193                
CTRIA3         2  131000     634     633     615-131.754                
CTRIA3         3  131000     635     634     614-132.268                
CTRIA3         4  131000     636     635     613    -90.                
CTRIA3         5  131000     637     636     612    -90.                
CTRIA3         6  131000     639     631     632 -48.807                
CTRIA3         7  131000     640     639     633-48.2452                
CTRIA3         8  131000     641     640     634-47.7318                
CTRIA3         9  131000     642     641     635-89.9924                
CTRIA3        10  131000     643     642     636    -90.                
CTRIA3        11  131000     645     630     631-48.8071                
CTRIA3        12  131000     646     645     639-48.2451                
CTRIA3        13  131000     647     646     640-47.7318                
CTRIA3        14  131000     648     647     641    -90.                
CTRIA3        15  131000     657     648     642-89.9949                
CTRIA3        16  131000     659     629     630 -48.807                
CTRIA3        17  131000     660     659     645-48.2451                
CTRIA3        18  131000     661     660     646-47.7317                
CTRIA3        19  131000     662     661     647-89.9969                
CTRIA3        20  131000     663     662     648-89.9969                
$ ... 50 like lines cut
