$ pyNastran: version=zona
$
$ pyNastran: skip_cards=SET1,BODY7
$Standard Input File:	F16MA41.INP
$ASSIGN FEM=F16SYMM.FRE, PRINT=0, FORM=FREE, BOUND = SYM,SUPORT=135
$ASSIGN FEM=F16ANTI.FRE, PRINT=0, FORM=FREE, BOUND = ANTI,SUPORT=246
ASSIGN MATRIX=f16fem3_symm.mgh, FORM=FORMAT,	MNAME=SMGH
ASSIGN MATRIX=f16fem3_anti.mgh, FORM=FORMAT,	MNAME=AMGH
CPU	8
MEMORY	1200MB
SOL 145
CEND
$
TITLE = F16 MA41 CONFIGURATION (AIM9P  LAU-129 LAUNCHER + MK-84 + 370 TANK)
ECHO = SORT
$
SUBCASE = 1
    SUBTITLE = GENERATES GENERALIZED AERODYNAMIC FORCE (GAF) MATRIX ON
    LABEL = STATIC AEROELASTICALLY DEFORMED SHAPE AT M=0.9 AND Q=34.6 PSI
    GENGAF=100
$
BEGIN BULK
$---------
GRID	1		0.	0.	0.
GRID	2		1.	0.	0.
CROD,10,20,1,2
PROD,20,100,1.0
MAT1,100,3.0e7,,0.3
AEROS			1.0	2.0	10.
$---------
$...1..|...2...|...3...|...4...|...5...|...6...|...7...|...8...|...9...|...10..|
PARAM	CHIMERA	5.0
STFLOW	100	SAVE	steadyM95.dat	grid.plt	sol.plt
$...1..|...2...|...3...|...4...|...5...|...6...|...7...|...8...|...9...|...10..|
BLKSEQ	1	1	11	12	13	14	15	21
	31	32	33	34	35	41	61	71
	72	73	74	75	81	91	92	93
	94	95
BLKLAY	1	1	2	3	3	3	3	2
	2	3	3	3	3	2	2	2
	3	3	3	3	2	2	3	3
	3	3
$*****************************************************************************
$...1..|...2...|...3...|...4...|...5...|...6...|...7...|...8...|...9...|...10..|
GENGAF	+100	100	10	ASYM	0.
	34.6
$
$
$ EXTFILE TO SPECIFY THE DIRECTORY NAME IN WHICH THE GAF MATRICES ARE TO BE STORED.
$
E$
EXTFILE	100	GAF
$
$*****************************************************************************
$
$ MKAEROZ TO GENERATE GAF MATRICS FOR M=0.9 AT ANGLE OF ATTACK = 2 DEGREES
$ THE GAF MATRICES IS BAED ON THE STATIC AEROELASTICALLY DEFORMED SHAPE
$ AT Q=34.6 PSI
$
$ THERE ARE 10 REDUCED FREQUENCIES (K) SPECIFIED. THEREFORE, 10 GAF MATRCIES
$ WILL BE GENERATED. THE FILE NAMES OF THE MATRICES ARE:
$ QHHS0101.DAT FOR K=0.0
$ QHHS0102.DAT FOR K=0.05
$ QHHS0103.DAT FOR K=0.1
$ QHHS0104.DAT FOR K=0.2
$ QHHS0105.DAT FOR K=0.3
$ QHHS0106.DAT FOR K=0.4
$ QHHS0107.DAT FOR K=0.5
$
$*****************************************************************************
$	IDMK	MACH	MKPARM	IDFLT	SAVE	FILENAME	PRINT
MKAEROZ	10	0.95	100	10					+MK1
+MK1	0.0	0.05	0.1	0.2	0.3	0.4	0.5
$
MKPARAM	100	3	151	257	4	2	1	0
MKPARAL	100	80	257	4	2	1	0
	6.0
	3	3	3	3	3	3
$
$ TRIMFLT CARD TO DEFINE THE MEAN-FLOW AT ANGLE OF ATTACH=2 DEGREES
$
TRIMFLT	10	2.0
$
$********************
$...1..|...2...|...3...|...4...|...5...|...6...|...7...|...8...|...9...|...10..|
$ACOORD	10	0.0	0.0	-5.0	0.0	0.0	0.0
ACOORD	10	0.0	0.0	-5.0	0.0	0.0
$BODY7      BID    LABEL PBODY7   ACOORD    SEG IDMESH1
BODY7    100001 FUSELAGE              10       1       1
SEGMESH	1	77	25
	1	8.000	0.0	0.0
	1	16.500	0.0	1.5
	1	25.000	0.0	3.0
	1	33.500	0.0	4.5
	1	42.000	0.0	6.0
	1	50.500	0.0	7.5
	1	59.000	0.0	9.0
	1	67.500	0.0	10.5
	1	76.000	0.0	12.0
	1	84.500	0.0	13.5
	1	93.000	0.0	15.0
	1	101.500	0.0	16.5
	1	110.000	0.0	18.0
	1	118.500	0.0	19.5
	1	127.000	0.0	21.0
	1	135.500	0.0	22.5
	1	144.000	0.0	24.0
	1	152.500	0.0	25.5
	1	161.000	0.0	27.0
	1	169.500	0.0	28.5
$ ... 57 like lines cut
$
$$$$$$$$$$$$$$$$$$$$$$$$$$$$$$$$$$$$$$$$$$$$$$$$$$$$$$$$$$$$$$$$$$$$$$$$$$$$$$$$
$ INBOARD STRAKE
$$$$$$$$$$$$$$$$$$$$$$$$$$$$$$$$$$$$$$$$$$$$$$$$$$$$$$$$$$$$$$$$$$$$$$$$$$$$$$$$
$...1..|...2...|...3...|...4...|...5...|...6...|...7...|...8...|...9...|...10..|
$	STARBOARD	INBOARD	STRAKE
CAERO7	6001	ISTRAK-R	10	5	57	0	0	0	+CA71
+CA71	178.00	30.00	5.00	359.20	1777	100001				+CA72
+CA72	216.69	41.50	5.00	332.53	1777	0
$	PORTBOARD
CAERO7	5006001	ISTRAK-L	10	5	57	0	0	0	+CA71
+CA71	216.69	-41.50	5.00	332.53	1777	0				+CA72
+CA72	178.00	-30.00	5.00	359.20	1777	100001
$
$...1..|...2...|...3...|...4...|...5...|...6...|...7...|...8...|...9...|...10..|
AEFACT	1777	0.0000	2.1797	4.3593	6.5390	8.7187	10.8983	13.0780	+AE10
+AE10	15.2977	17.5174	19.7372	21.9569	24.1766	26.3964	28.6161	30.8358	+AE11
+AE11	33.0556	35.2753	37.4950	39.7147	41.9345	44.1542	46.3739	48.5937	+AE12
+AE12	50.1294	51.6652	53.2010	54.7368	56.2725	57.8083	59.4803	61.1524	+AE13
+AE13	62.2671	63.3818	64.4964	65.6111	66.7258	67.8405	69.5125	71.1846	+AE14
+AE14	72.7854	74.3863	75.9871	77.5880	79.1888	80.7897	82.3906	83.9914	+AE15
+AE15	85.5923	87.1931	88.7940	90.3949	91.9957	93.5966	95.1974	96.7983	+AE16
+AE16	98.3991100.0000
$
$$$$$$$$$$$$$$$$$$$$$$$$$$$$$$$$$$$$$$$$$$$$$$$$$$$$$$$$$$$$$$$$$$$$$$$$$$$$$$$$
$ OUTBOARD STRAKE
$$$$$$$$$$$$$$$$$$$$$$$$$$$$$$$$$$$$$$$$$$$$$$$$$$$$$$$$$$$$$$$$$$$$$$$$$$$$$$$$
$...1..|...2...|...3...|...4...|...5...|...6...|...7...|...8...|...9...|...10..|
$	STARBOARD	OUTBOARD	STRAKE
CAERO7	6501	OSTRAK-R	10	5	29	0	0	4011	+CA71
+CA71	216.69	41.50	5.00	192.23	175	0				+CA72
+CA72	258.74	54.00	5.00	150.171	502	0
$	PORTBOARD	OUTBOARD	STRAKE
CAERO7	5006501	OSTRAK-L	10	5	29	0	0	5004011	+CA71
+CA71	258.74	-54.00	5.00	150.171	502	0				+CA72
+CA72	216.69	-41.50	5.00	192.23	175	0
$
$...1..|...2...|...3...|...4...|...5...|...6...|...7...|...8...|...9...|...10..|
AEFACT	175	0.0000	3.7705	7.5410	11.3115	15.0820	18.8525	22.6230	+AE10
+AE10	26.4628	30.3026	34.1424	37.9822	41.8221	45.6619	49.5017	53.3415	+AE11
+AE11	57.1813	61.0211	64.8609	68.7007	72.5406	76.3804	80.2202	84.0600	+AE12
+AE12	86.7167	89.3733	92.0300	94.6867	97.3433100.0000
AEFACT	176	0.000	4.236	8.471	12.707	17.703	22.698	26.336	+AE10
+AE10	29.975	33.613	37.251	40.889	44.528	48.166	51.804	55.442	+AE11
+AE11	59.081	62.719	66.357	69.995	73.634	77.272	80.910	83.847	+AE12
+AE12	86.784	89.721	92.658	95.595	100.000
$
$ PAFOIL7 for OUTBOARD STRAKE for STARBOARD STRAKE
$...1..|...2...|...3...|...4...|...5...|...6...|...7...|...8...|...9...|...10..|
$PAFOIL7     ID	ITAX	 ITHR	 ICAMR	 RADR	 ITHT	 ICAMT	 RADT
PAFOIL7	4011	4012	4013	4014		4015	4016
PAFOIL7	5004011	4012	4015	4016		4013	4014
AEFACT	4012	0.00	1.00	2.00	3.00	4.00	5.00	6.00	+AE10
+AE10	7.00	8.00	9.00	10.00	11.00	12.00	13.00	14.00	+AE11
+AE11	15.00	16.00	17.00	18.00	19.00	20.00	21.00	22.00	+AE12
+AE12	23.00	24.00	25.00	26.00	27.00	28.00	29.00	30.00	+AE13
+AE13	31.00	32.00	33.00	34.00	35.00	36.00	37.00	38.00	+AE14
+AE14	39.00	40.00	41.00	42.00	43.00	44.00	45.00	46.00	+AE15
+AE15	47.00	48.00	49.00	50.00	51.00	52.00	53.00	54.00	+AE16
+AE16	55.00	56.00	57.00	58.00	59.00	60.00	61.00	62.00	+AE17
+AE17	63.00	64.00	65.00	66.00	67.00	68.00	69.00	70.00	+AE18
+AE18	71.00	72.00	73.00	74.00	75.00	76.00	77.00	78.00	+AE19
+AE19	79.00	80.00	81.00	82.00	83.00	84.00	85.00	86.00	+AE20
+AE20	87.00	88.00	89.00	90.00	91.00	92.00	93.00	94.00	+AE21
+AE21	95.00	96.00	97.00	98.00	99.00	100.00
AEFACT	4013	0.0000	0.0831	0.1661	0.2315	0.2967	0.3618	0.4251	+AE10
+AE10	0.4869	0.5488	0.6101	0.6704	0.7300	0.7881	0.8460	0.9016	+AE11
+AE11	0.9563	1.0133	1.0698	1.1290	1.1907	1.2531	1.3173	1.3811	+AE12
+AE12	1.4441	1.5047	1.5637	1.6197	1.6748	1.7311	1.7842	1.8402	+AE13
+AE13	1.8966	1.9502	2.0038	2.0577	2.1104	2.1622	2.2077	2.2512	+AE14
+AE14	2.2932	2.3289	2.3623	2.3935	2.4259	2.4599	2.4905	2.5182	+AE15
+AE15	2.5459	2.5684	2.5901	2.6117	2.6286	2.6470	2.6638	2.6754	+AE16
+AE16	2.6881	2.6976	2.7036	2.7101	2.7144	2.7163	2.7144	2.7086	+AE17
+AE17	2.7029	2.6962	2.6898	2.6802	2.6667	2.6507	2.6308	2.6089	+AE18
+AE18	2.5819	2.5512	2.5179	2.4757	2.4335	2.3836	2.3282	2.2706	+AE19
+AE19	2.2031	2.1322	2.0544	1.9706	1.8826	1.7857	1.6814	1.5729	+AE20
+AE20	1.4634	1.3552	1.2544	1.1486	1.0431	0.9488	0.8447	0.7420	+AE21
+AE21	0.6461	0.5405	0.4390	0.3371	0.2343	0.1254
AEFACT	4014	0.0000	0.0558	0.1115	0.1470	0.1826	0.2179	0.2497	+AE10
+AE10	0.2777	0.3075	0.3356	0.3621	0.3864	0.4106	0.4311	0.4525	+AE11
+AE11	0.4718	0.4890	0.5072	0.5241	0.5399	0.5559	0.5703	0.5832	+AE12
+AE12	0.5955	0.6057	0.6142	0.6225	0.6325	0.6490	0.6660	0.6872	+AE13
+AE13	0.7125	0.7302	0.7478	0.7713	0.7882	0.8059	0.8241	0.8358	+AE14
+AE14	0.8497	0.8620	0.8700	0.8806	0.8911	0.9002	0.9133	0.9246	+AE15
+AE15	0.9356	0.9473	0.9568	0.9662	0.9762	0.9838	0.9917	0.9999	+AE16
+AE16	1.0070	1.0142	1.0193	1.0252	1.0317	1.0369	1.0398	1.0412	+AE17
+AE17	1.0424	1.0452	1.0476	1.0470	1.0486	1.0468	1.0447	1.0395	+AE18
+AE18	1.0309	1.0217	1.0117	0.9968	0.9824	0.9634	0.9431	0.9201	+AE19
+AE19	0.8943	0.8665	0.8356	0.8025	0.7664	0.7265	0.6838	0.6386	+AE20
+AE20	0.5900	0.5415	0.4940	0.4451	0.3963	0.3483	0.2996	0.2508	+AE21
+AE21	0.2016	0.1528	0.1041	0.0544	0.0061	-0.0426
AEFACT	4015	0.0000	0.4390	0.6049	0.7318	0.8383	0.9243	1.0081	+AE10
+AE10	1.0844	1.1588	1.2169	1.2753	1.3260	1.3746	1.4217	1.4671	+AE11
+AE11	1.5109	1.5533	1.5938	1.6327	1.6700	1.7049	1.7382	1.7680	+AE12
+AE12	1.7955	1.8213	1.8430	1.8640	1.8841	1.9005	1.9160	1.9303	+AE13
+AE13	1.9431	1.9546	1.9635	1.9728	1.9815	1.9874	1.9916	1.9942	+AE14
+AE14	1.9938	1.9934	1.9917	1.9857	1.9784	1.9703	1.9580	1.9450	+AE15
+AE15	1.9293	1.9111	1.8929	1.8735	1.8512	1.8282	1.8036	1.7781	+AE16
+AE16	1.7526	1.7264	1.6979	1.6692	1.6405	1.6096	1.5780	1.5464	+AE17
+AE17	1.5123	1.4761	1.4401	1.4041	1.3672	1.3293	1.2916	1.2536	+AE18
+AE18	1.2141	1.1745	1.1341	1.0934	1.0524	1.0109	0.9699	0.9276	+AE19
+AE19	0.8866	0.8446	0.8030	0.7611	0.7193	0.6774	0.6357	0.5939	+AE20
+AE20	0.5521	0.5104	0.4686	0.4268	0.3850	0.3433	0.3015	0.2597	+AE21
+AE21	0.2223	0.2030	0.1854	0.1851	0.1760	0.1447
AEFACT	4016	0.0000	0.1088	0.1815	0.2463	0.3071	0.3588	0.4124	+AE10
+AE10	0.4630	0.5122	0.5537	0.5956	0.6331	0.6699	0.7061	0.7413	+AE11
+AE11	0.7755	0.8089	0.8412	0.8728	0.9034	0.9325	0.9608	0.9872	+AE12
+AE12	1.0119	1.0367	1.0577	1.0789	1.1006	1.1189	1.1370	1.1550	+AE13
+AE13	1.1716	1.1876	1.2018	1.2166	1.2315	1.2450	1.2572	1.2699	+AE14
+AE14	1.2804	1.2908	1.3026	1.3109	1.3186	1.3272	1.3330	1.3395	+AE15
+AE15	1.3430	1.3456	1.3487	1.3514	1.3518	1.3516	1.3508	1.3491	+AE16
+AE16	1.3475	1.3461	1.3423	1.3385	1.3346	1.3287	1.3223	1.3159	+AE17
+AE17	1.3069	1.2956	1.2840	1.2724	1.2594	1.2450	1.2309	1.2161	+AE18
+AE18	1.1978	1.1796	1.1605	1.1382	1.1161	1.0912	1.0656	1.0368	+AE19
+AE19	1.0067	0.9724	0.9352	0.8939	0.8511	0.8070	0.7620	0.7168	+AE20
+AE20	0.6711	0.6246	0.5782	0.5319	0.4847	0.4359	0.3871	0.3381	+AE21
+AE21	0.2890	0.2400	0.1908	0.1424	0.0939	0.0455
$$$$$$$$$$$$$$$$$$$$$$$$$$$$$$$$$$$$$$$$$$$$$$$$$$$$$$$$$$$$$$$$$$$$$$$$$$$$$$$$
$ MAIN WING
$$$$$$$$$$$$$$$$$$$$$$$$$$$$$$$$$$$$$$$$$$$$$$$$$$$$$$$$$$$$$$$$$$$$$$$$$$$$$$$$
$ STARBOARD
$CAERO7	WID	LABEL	ACOORD	NSPAN	NCHORD	LSPAN	ZTAIC	PAFOIL7
CAERO7	7001	WING-R		21	29	501	0	4111	+CA71
+CA71	258.74	54.00	0.00	150.171	502	0			+CA72
+CA72	364.47	180.00	0.00	44.46	502	0
$ PORTBOARD
CAERO7	5007001	WING-L		21	29	500501	0	5004111	+CA71
+CA71	364.47	-180.00	0.00	44.46	502	0			+CA72
+CA72	258.74	-54.00	0.00	150.171	502	0
$
$...1..|...2...|...3...|...4...|...5...|...6...|...7...|...8...|...9...|...10..|
AEFACT	501	0.000	4.497	8.995	13.492	19.862	26.232	32.601	+AE10
+AE10	38.971	45.341	52.381	57.671	62.960	68.250	72.749	77.247	+AE11
+AE11	81.746	85.397	89.048	92.698	96.349	100.000
AEFACT	502	0.0000	2.9505	5.9010	8.8515	11.8020	14.7525	17.7030	+AE10
+AE10	21.6534	25.6039	29.5543	33.5047	37.4552	41.4056	45.3561	49.3065	+AE11
+AE11	53.2569	57.2074	61.1578	65.1083	69.0587	73.0091	76.9596	80.9100	+AE12
+AE12	84.0917	87.2733	90.4550	93.6367	96.8183100.0000
AEFACT	500501	0.	3.651	7.302	10.952	14.603	18.254	22.753	+AE
+AE	27.251	31.75	37.04	42.329	47.619	54.659	61.029	67.399	+AE
+AE	73.768	80.138	86.508	91.005	95.503	100.
$
$$$$$$$$$$$$$$$$$$$$$$$$$$$$$$$$$$$$$$$$$$$$$$$$$$$$$$$$$$$$$$$$$$$$$$$$$$$$$$$$
$ PAFOIL7 for STARBOARD WING
$$$$$$$$$$$$$$$$$$$$$$$$$$$$$$$$$$$$$$$$$$$$$$$$$$$$$$$$$$$$$$$$$$$$$$$$$$$$$$$$
$...1..|...2...|...3...|...4...|...5...|...6...|...7...|...8...|...9...|...10..|
$PAFOIL7     ID	ITAX	 ITHR	 ICAMR	 RADR	 ITHT	 ICAMT	 RADT
PAFOIL7	4111	4112	4113	4114		4115	4116
PAFOIL7	5004111	4112	4115	4116		4113	4114
AEFACT	4112	0.00	1.00	2.00	3.00	4.00	5.00	6.00	+AE10
+AE10	7.00	8.00	9.00	10.00	11.00	12.00	13.00	14.00	+AE11
+AE11	15.00	16.00	17.00	18.00	19.00	20.00	21.00	22.00	+AE12
+AE12	23.00	24.00	25.00	26.00	27.00	28.00	29.00	30.00	+AE13
+AE13	31.00	32.00	33.00	34.00	35.00	36.00	37.00	38.00	+AE14
+AE14	39.00	40.00	41.00	42.00	43.00	44.00	45.00	46.00	+AE15
+AE15	47.00	48.00	49.00	50.00	51.00	52.00	53.00	54.00	+AE16
+AE16	55.00	56.00	57.00	58.00	59.00	60.00	61.00	62.00	+AE17
+AE17	63.00	64.00	65.00	66.00	67.00	68.00	69.00	70.00	+AE18
+AE18	71.00	72.00	73.00	74.00	75.00	76.00	77.00	78.00	+AE19
+AE19	79.00	80.00	81.00	82.00	83.00	84.00	85.00	86.00	+AE20
+AE20	87.00	88.00	89.00	90.00	91.00	92.00	93.00	94.00	+AE21
+AE21	95.00	96.00	97.00	98.00	99.00	100.00
AEFACT	4113	0.0000	0.4390	0.6049	0.7318	0.8383	0.9243	1.0081	+AE10
+AE10	1.0844	1.1588	1.2169	1.2753	1.3260	1.3746	1.4217	1.4671	+AE11
+AE11	1.5109	1.5533	1.5938	1.6327	1.6700	1.7049	1.7382	1.7680	+AE12
+AE12	1.7955	1.8213	1.8430	1.8640	1.8841	1.9005	1.9160	1.9303	+AE13
+AE13	1.9431	1.9546	1.9635	1.9728	1.9815	1.9874	1.9916	1.9942	+AE14
+AE14	1.9938	1.9934	1.9917	1.9857	1.9784	1.9703	1.9580	1.9450	+AE15
+AE15	1.9293	1.9111	1.8929	1.8735	1.8512	1.8282	1.8036	1.7781	+AE16
+AE16	1.7526	1.7264	1.6979	1.6692	1.6405	1.6096	1.5780	1.5464	+AE17
+AE17	1.5123	1.4761	1.4401	1.4041	1.3672	1.3293	1.2916	1.2536	+AE18
+AE18	1.2141	1.1745	1.1341	1.0934	1.0524	1.0109	0.9699	0.9276	+AE19
+AE19	0.8866	0.8446	0.8030	0.7611	0.7193	0.6774	0.6357	0.5939	+AE20
+AE20	0.5521	0.5104	0.4686	0.4268	0.3850	0.3433	0.3015	0.2597	+AE21
+AE21	0.2223	0.2030	0.1854	0.1851	0.1760	0.1447
AEFACT	4114	0.0000	0.1088	0.1815	0.2463	0.3071	0.3588	0.4124	+AE10
+AE10	0.4630	0.5122	0.5537	0.5956	0.6331	0.6699	0.7061	0.7413	+AE11
+AE11	0.7755	0.8089	0.8412	0.8728	0.9034	0.9325	0.9608	0.9872	+AE12
+AE12	1.0119	1.0367	1.0577	1.0789	1.1006	1.1189	1.1370	1.1550	+AE13
+AE13	1.1716	1.1876	1.2018	1.2166	1.2315	1.2450	1.2572	1.2699	+AE14
+AE14	1.2804	1.2908	1.3026	1.3109	1.3186	1.3272	1.3330	1.3395	+AE15
+AE15	1.3430	1.3456	1.3487	1.3514	1.3518	1.3516	1.3508	1.3491	+AE16
+AE16	1.3475	1.3461	1.3423	1.3385	1.3346	1.3287	1.3223	1.3159	+AE17
+AE17	1.3069	1.2956	1.2840	1.2724	1.2594	1.2450	1.2309	1.2161	+AE18
+AE18	1.1978	1.1796	1.1605	1.1382	1.1161	1.0912	1.0656	1.0368	+AE19
+AE19	1.0067	0.9724	0.9352	0.8939	0.8511	0.8070	0.7620	0.7168	+AE20
+AE20	0.6711	0.6246	0.5782	0.5319	0.4847	0.4359	0.3871	0.3381	+AE21
+AE21	0.2890	0.2400	0.1908	0.1424	0.0939	0.0455
AEFACT	4115	0.0000	0.4366	0.6058	0.7326	0.8382	0.9262	1.0083	+AE10
+AE10	1.0825	1.1516	1.2176	1.2756	1.3249	1.3706	1.4158	1.4596	+AE11
+AE11	1.5029	1.5462	1.5896	1.6303	1.6681	1.7052	1.7365	1.7670	+AE12
+AE12	1.7951	1.8219	1.8449	1.8661	1.8856	1.9029	1.9173	1.9311	+AE13
+AE13	1.9438	1.9551	1.9653	1.9743	1.9816	1.9875	1.9909	1.9937	+AE14
+AE14	1.9938	1.9925	1.9891	1.9830	1.9759	1.9660	1.9545	1.9411	+AE15
+AE15	1.9262	1.9093	1.8908	1.8709	1.8490	1.8267	1.8027	1.7775	+AE16
+AE16	1.7516	1.7248	1.6968	1.6684	1.6389	1.6088	1.5774	1.5453	+AE17
+AE17	1.5116	1.4770	1.4408	1.4044	1.3671	1.3291	1.2905	1.2518	+AE18
+AE18	1.2132	1.1737	1.1336	1.0934	1.0525	1.0117	0.9706	0.9294	+AE19
+AE19	0.8869	0.8452	0.8033	0.7606	0.7186	0.6766	0.6350	0.5934	+AE20
+AE20	0.5519	0.5106	0.4689	0.4277	0.3867	0.3472	0.3093	0.2731	+AE21
+AE21	0.2382	0.2038	0.1701	0.1355	0.0986	0.0593
AEFACT	4116	0.0000	0.1524	0.2787	0.3964	0.5056	0.6120	0.7121	+AE10
+AE10	0.8118	0.9097	1.0082	1.1005	1.1862	1.2709	1.3562	1.4417	+AE11
+AE11	1.5268	1.6119	1.6969	1.7795	1.8595	1.9402	2.0159	2.0934	+AE12
+AE12	2.1691	2.2447	2.3173	2.3891	2.4599	2.5295	2.5985	2.6668	+AE13
+AE13	2.7338	2.8000	2.8658	2.9313	2.9958	3.0599	3.1230	3.1861	+AE14
+AE14	3.2483	3.3096	3.3702	3.4293	3.4879	3.5454	3.6020	3.6576	+AE15
+AE15	3.7121	3.7657	3.8181	3.8701	3.9206	3.9709	4.0205	4.0689	+AE16
+AE16	4.1175	4.1654	4.2124	4.2593	4.3050	4.3501	4.3942	4.4370	+AE17
+AE17	4.4786	4.5190	4.5578	4.5957	4.6329	4.6688	4.7042	4.7385	+AE18
+AE18	4.7721	4.8042	4.8344	4.8638	4.8912	4.9163	4.9399	4.9604	+AE19
+AE19	4.9786	4.9948	5.0083	5.0187	5.0268	5.0325	5.0380	5.0428	+AE20
+AE20	5.0473	5.0513	5.0550	5.0585	5.0616	5.0656	5.0681	5.0707	+AE21
+AE21	5.0718	5.0725	5.0729	5.0734	5.0747	5.0759
$$$$$$$$$$$$$$$$$$$$$$$$$$$$$$$$$$$$$$$$$$$$$$$$$$$$$$$$$$$$$$$$$$$$$$$$$$$$$$$$
$ LAU-129 LAUNCHER FOR AIM-9P MISSILE (CASE MA41)
$$$$$$$$$$$$$$$$$$$$$$$$$$$$$$$$$$$$$$$$$$$$$$$$$$$$$$$$$$$$$$$$$$$$$$$$$$$$$$$$
$
$ CAERO7 WID	LABEL	ACOORD	NSPAN	NCHORD	LSPAN	ZTAIC	PAFOIL7
$ 	XRL	YRL	ZRL	RCH	LRCHD	ATTCHR	ACORDR
$ 	XTL	YTL	ZTL	TCH	LTCHD	ATTCHT	ACORDT
CAERO7	8001	AIM9RLAU 1000	5	39	0		4701	+CA71
+CA71	9.16	-8.50	0.0	102.95	1500006	0			+CA72
+CA72	9.16	-2.50	0.0	102.95	1500006	1001
CAERO7	5008001	AIM9LLAU 9000	5	39	0		4701	+CA71
+CA71	9.16	2.50	0.0	102.95	1500006	5001001			+CA72
+CA72	9.16	8.50	0.0	102.95	1500006	0
$
AEFACT	1500006	0.0000	6.5755	15.4718	23.9813	32.1040	40.2267	46.4154	+AE11
+AE11	48.9638	50.2380	51.5122	52.7864	54.0606	55.3348	56.6090	57.8832	+AE12
+AE12	59.5892	61.2953	63.0013	64.7074	66.4134	68.1194	69.8255	71.5315	+AE13
+AE13	73.2375	74.9436	76.6496	78.3556	80.0617	81.7677	83.4738	85.1798	+AE14
+AE14	86.5538	87.9279	89.3019	90.6759	92.0500	93.4240	94.7980100.0000
$
$ 3 deg. twist angle
$ PAFOIL7 for LAU-129 LAUNCHER - STA. 1
$...1..|...2...|...3...|...4...|...5...|...6...|...7...|...8...|...9...|...10..|
$PAFOIL7     ID	ITAX	 ITHR	 ICAMR	 RADR	 ITHT	 ICAMT	 RADT
PAFOIL7	4701	-4702	4703	4704		4703	4704
AEFACT	4702	0.000	3.342	95.350	100.000
AEFACT	4703	0.0000	1.4204	1.4204	0.0000
AEFACT	4704	0.0000	-0.1749	-4.9906	-5.2340	
$
$$$$$$$$$$$$$$$$$$$$$$$$$$$$$$$$$$$$$$$$$$$$$$$$$$$$$$$$$$$$$$$$$$$$$$$$$$$$$$$$
$ HORIZONTAL TAIL
$$$$$$$$$$$$$$$$$$$$$$$$$$$$$$$$$$$$$$$$$$$$$$$$$$$$$$$$$$$$$$$$$$$$$$$$$$$$$$$$
$
$CAERO7	WID	LABEL	ACOORD	NSPAN	NCHORD	LSPAN	ZTAIC	PAFOIL7
CAERO7	8501	HTAIL_R		13	19	508	0	521	+CA71
+CA71	453.40	41.50	0.00	95.82	0				+CA72
+CA72	511.83	111.13	0.00	37.39	0
CAERO7	5008501	HTAIL_L		13	19	500508	0	500521	+CA71
+CA71	511.83	-111.13	0.00	37.39	0				+CA72
+CA72	453.40	-41.50	0.00	95.82	0
$
AEFACT	508	0.000	4.487	8.975	13.462	17.950	26.089	34.228	+AE10
+AE10	42.367	53.894	65.420	76.947	88.473	100.000
$
AEFACT	500508	0.	11.527	23.053	34.58	46.106	57.633	65.772	+AE
+AE	73.911	82.05	86.538	91.025	95.513	100.
$
$$$$$$$$$$$$$$$$$$$$$$$$$$$$$$$$$$$$$$$$$$$$$$$$$$$$$$$$$$$$$$$$$$$$$$$$$$$$$$$$
$ PAFOIL7 for STARBOARD H-Tail
$$$$$$$$$$$$$$$$$$$$$$$$$$$$$$$$$$$$$$$$$$$$$$$$$$$$$$$$$$$$$$$$$$$$$$$$$$$$$$$$
$...1..|...2...|...3...|...4...|...5...|...6...|...7...|...8...|...9...|...10..|
$PAFOIL7     ID	ITAX	 ITHR	 ICAMR	 RADR	 ITHT	 ICAMT	 RADT
PAFOIL7	521	522	523	524		525	526
PAFOIL7	500521	522	525	526		523	524
AEFACT	522	0.00	1.00	2.00	3.00	4.00	5.00	6.00	+AE10
+AE10	7.00	8.00	9.00	10.00	11.00	12.00	13.00	14.00	+AE11
+AE11	15.00	16.00	17.00	18.00	19.00	20.00	21.00	22.00	+AE12
+AE12	23.00	24.00	25.00	26.00	27.00	28.00	29.00	30.00	+AE13
+AE13	31.00	32.00	33.00	34.00	35.00	36.00	37.00	38.00	+AE14
+AE14	39.00	40.00	41.00	42.00	43.00	44.00	45.00	46.00	+AE15
+AE15	47.00	48.00	49.00	50.00	51.00	52.00	53.00	54.00	+AE16
+AE16	55.00	56.00	57.00	58.00	59.00	60.00	61.00	62.00	+AE17
+AE17	63.00	64.00	65.00	66.00	67.00	68.00	69.00	70.00	+AE18
+AE18	71.00	72.00	73.00	74.00	75.00	76.00	77.00	78.00	+AE19
+AE19	79.00	80.00	81.00	82.00	83.00	84.00	85.00	86.00	+AE20
+AE20	87.00	88.00	89.00	90.00	91.00	92.00	93.00	94.00	+AE21
+AE21	95.00	96.00	97.00	98.00	99.00	100.00
AEFACT	523	0.0000	0.1373	0.2463	0.3543	0.4613	0.5670	0.6718	+AE10
+AE10	0.7751	0.8775	0.9772	1.0731	1.1666	1.2583	1.3484	1.4349	+AE11
+AE11	1.5179	1.5999	1.6792	1.7522	1.8244	1.8967	1.9660	2.0335	+AE12
+AE12	2.1002	2.1669	2.2295	2.2873	2.3408	2.3925	2.4437	2.4950	+AE13
+AE13	2.5426	2.5886	2.6301	2.6674	2.7015	2.7352	2.7654	2.7955	+AE14
+AE14	2.8257	2.8536	2.8772	2.8899	2.9043	2.9193	2.9344	2.9482	+AE15
+AE15	2.9579	2.9651	2.9675	2.9698	2.9722	2.9679	2.9593	2.9496	+AE16
+AE16	2.9399	2.9287	2.9132	2.8930	2.8712	2.8484	2.8255	2.8024	+AE17
+AE17	2.7722	2.7387	2.7043	2.6667	2.6291	2.5895	2.5430	2.4965	+AE18
+AE18	2.4497	2.3993	2.3436	2.2878	2.2321	2.1703	2.1074	2.0415	+AE19
+AE19	1.9737	1.9030	1.8300	1.7561	1.6810	1.5996	1.5169	1.4331	+AE20
+AE20	1.3475	1.2582	1.1669	1.0733	0.9775	0.8784	0.7766	0.6713	+AE21
+AE21	0.5638	0.4553	0.3475	0.2420	0.1362	0.0262
AEFACT	524	0.0000	0.0002	0.0002	0.0003	0.0003	0.0002	0.0001	+AE10
+AE10	0.0003	0.0001	0.0006	0.0007	0.0009	0.0001	0.0000	0.0000	+AE11
+AE11	0.0002	0.0002	0.0008	0.0007	0.0027	0.0045	0.0040	0.0026	+AE12
+AE12	0.0009	0.0009	0.0005	0.0017	0.0017	0.0007	0.0005	0.0018	+AE13
+AE13	0.0013	0.0001	0.0004	0.0012	0.0022	0.0031	0.0022	0.0013	+AE14
+AE14	0.0004	0.0000	0.0001	0.0019	0.0027	0.0031	0.0035	0.0033	+AE15
+AE15	0.0010	0.0010	0.0007	0.0003	0.0000	0.0001	0.0003	0.0008	+AE16
+AE16	0.0012	0.0010	0.0014	0.0015	0.0010	0.0004	0.0003	0.0008	+AE17
+AE17	0.0000	0.0008	0.0016	0.0010	0.0004	0.0000	0.0000	0.0000	+AE18
+AE18	0.0002	0.0002	0.0000	0.0003	0.0006	0.0000	0.0004	0.0006	+AE19
+AE19	0.0007	0.0006	0.0008	0.0006	0.0003	0.0005	0.0009	0.0007	+AE20
+AE20	0.0004	0.0004	0.0004	0.0003	0.0002	0.0005	0.0003	0.0003	+AE21
+AE21	0.0001	0.0000	0.0001	0.0000	0.0001	0.0000
AEFACT	525	0.0000	0.0890	0.1780	0.2597	0.3388	0.4178	0.4924	+AE10
+AE10	0.5656	0.6390	0.7112	0.7833	0.8536	0.9202	0.9842	1.0455	+AE11
+AE11	1.1067	1.1680	1.2292	1.2850	1.3389	1.3913	1.4393	1.4872	+AE12
+AE12	1.5345	1.5818	1.6291	1.6747	1.7191	1.7621	1.7938	1.8244	+AE13
+AE13	1.8551	1.8857	1.9170	1.9491	1.9812	2.0119	2.0358	2.0541	+AE14
+AE14	2.0703	2.0843	2.0983	2.1123	2.1263	2.1399	2.1522	2.1645	+AE15
+AE15	2.1723	2.1770	2.1765	2.1738	2.1711	2.1684	2.1658	2.1629	+AE16
+AE16	2.1556	2.1481	2.1396	2.1263	2.1108	2.0919	2.0729	2.0541	+AE17
+AE17	2.0358	2.0120	1.9854	1.9588	1.9317	1.9020	1.8654	1.8305	+AE18
+AE18	1.7956	1.7609	1.7238	1.6838	1.6420	1.5981	1.5507	1.5016	+AE19
+AE19	1.4513	1.4011	1.3508	1.2955	1.2369	1.1770	1.1172	1.0577	+AE20
+AE20	0.9946	0.9282	0.8592	0.7902	0.7202	0.6481	0.5723	0.4941	+AE21
+AE21	0.4157	0.3384	0.2626	0.1908	0.1205	0.0051
AEFACT	526	0.0000	0.0029	0.0058	0.0050	0.0029	0.0008	0.0008	+AE10
+AE10	0.0014	0.0018	0.0015	0.0012	0.0000	0.0015	0.0018	0.0007	+AE11
+AE11	0.0004	0.0015	0.0026	0.0010	0.0015	0.0031	0.0025	0.0019	+AE12
+AE12	0.0009	0.0000	0.0009	0.0010	0.0004	0.0004	0.0011	0.0013	+AE13
+AE13	0.0014	0.0016	0.0014	0.0009	0.0003	0.0004	0.0006	0.0012	+AE14
+AE14	0.0020	0.0016	0.0013	0.0010	0.0006	0.0001	0.0011	0.0023	+AE15
+AE15	0.0012	0.0013	0.0012	0.0001	0.0010	0.0022	0.0033	0.0043	+AE16
+AE16	0.0032	0.0019	0.0000	0.0005	0.0018	0.0013	0.0009	0.0005	+AE17
+AE17	0.0004	0.0004	0.0004	0.0003	0.0003	0.0003	0.0001	0.0002	+AE18
+AE18	0.0005	0.0008	0.0002	0.0008	0.0005	0.0004	0.0005	0.0008	+AE19
+AE19	0.0005	0.0002	0.0001	0.0006	0.0008	0.0004	0.0001	0.0007	+AE20
+AE20	0.0005	0.0012	0.0006	0.0001	0.0001	0.0010	0.0006	0.0003	+AE21
+AE21	0.0001	0.0004	0.0002	0.0003	0.0005	0.0007
$
$
$$$$$$$$$$$$$$$$$$$$$$$$$$$$$$$$$$$$$$$$$$$$$$$$$$$$$$$$$$$$$$$$$$$$$$$$$$$$$$$$
$ BLOCK WITH ID=1 TO MODEL THE WHOLE AIRCRAFT WITHOUT UNDERWING STORES $
$ 13 Y-ZONES FROM LEFT HAND SIDE (LHS) TO RIGHT HAND SIDE (RHS) $
$ Y-ZONE 1 (Y FROM -197.0 to -186.0) $
$ LHS CAP ID=5014501 $
$ Y-ZONE 2 (Y FROM -186. TO -180.): $
$ LHS TIP LAUNCHER AT STATION 9 (CAERO7 ID=5008001) $
$ Y-ZONE 3 (Y FROM -180. TO -111.13): $
$ LHS OUTBOARD WING (CAERO7 ID=5007001) $
$ LHS GAP ID=518501 $
$ LHS GAP ID=519501 $
$ Y-ZONE 4 (Y FROM -111.13 TO -54.): $
$ LHS OUTBOARD HORIZONTAL TAIL (CAERO7 ID=8501) $
$ LHS INBOARD WING (CAERO7 ID=5007001) $
$ LHS GAP ID=518501 $
$ AND LHS GAP ID=519001 $
$ Y-ZONE 5 (Y FROM -54. -41.0): $
$ LHS OUTBOARD STRAKE (CAERO7 ID=5006501) $
$ LHS INBOARD HORIZONTAL TAIL (CAERO7 ID=5008501) $
$ LHS GAP ID=518001 $
$ AND LHS GAP ID=519001 $
$ Y-ZONE 6 (Y FROM -41.5 TO -30.0): $
$ LHS INBOARD STRAKE (CAERO7 ID=5006001) $
$ AND LHS GAP ID=518001 $
$ Y-ZONE 7 (Y FROM -30.0 TO 30.0): $
$ FUSELAGE (BODY7 ID=100001) $
$ FUSELAGE (BODY7 ID=1) $
$ Y-ZONE 8 (Y FROM 30. TO 41.5 ): $
$ RHS INBOARD STRAKE (CAERO7 ID=6001) $
$ AND RHS GAP ID=18001 $
$ Y-ZONE 9 (Y FROM 41.5 TO 54.0 ): $
$ RHS OUTBOARD STRAKE (CAERO7 ID=6501) $
$ RHS INBOARD HORIZONTAL TAIL (CAERO7 ID=8501) $
$ RHS GAP ID=18001 $
$ AND RHS GAP ID=19001 $
$ Y-ZONE 10 (Y FROM 54.0 111.13): $
$ RHS INBOARD WING (CAERO7 ID=7001) $
$ RHS OUTBOARD HORIZONTAL TAIL (CAERO7 ID=8501) $
$ RHS GAP ID=18501 $
$ AND RHS GAP ID=19001 $
$ Y-ZONE 11 (Y FROM 111.13 TO 180.0): $
$ RHS OUTBOARD WING (CAERO7 ID=7001) $
$ RHS GAP ID=18501 $
$ RHS GAP ID=19501 $
$ Y-ZONE 12 (Y FROM 180.0 TO 186.0): $
$ RHS TIP LAUNCHER (CAERO7 ID=8001) $
$ Y-ZONE 13 (Y FROM 186.0 TO 197.0): $
$ RHS CAP ID=14501 $
$$$$$$$$$$$$$$$$$$$$$$$$$$$$$$$$$$$$$$$$$$$$$$$$$$$$$$$$$$$$$$$$$$$$$$$$$$$$$$$$
$...1..|...2...|...3...|...4...|...5...|...6...|...7...|...8...|...9...|...10..|
BLOCK	1	0	-800.	2000.	-500.	500.	-1500.	1500.
	-197.	-186.	5014501
	-186.	-180.	5008001
	-180.	-111.13	5007001	518501	519501
	-111.13	-54.	5007001	5008501	518501	519001
	-54.	-41.5	5006501	5008501	518001	519001
	-41.5	-30.	5006001	518001
	-30.0	30.	100001
	30.	41.5	6001	18001
	41.5	54.	6501	8501	18001	19001
	54.	111.13	7001	8501	18501	19001
	111.13	180.	7001	18501	19501
	180.	186.	8001
	186.	197.	14501
MESHPRM	1	1	0.015	0.0125	1.35	1.40	1.45
$
$ GAP Definition
$...1..|...2...|...3...|...4...|...5...|...6...|...7...|...8...|...9...|...10..	
$ AHEAD RHS INBOARD & OUTBOARD STRAKE
$
GAP	18001	GAP1	9
	110.0	30.0	0.0	68.0
	183.6545	54.0	0.0	75.0855	8503
$
$ AHEAD WING LEADING EDGE
$
GAP	18501	GAP2	4	9	8507
	183.6545	54.0	0.0	75.0855	8503
	312.75	180.0	0.0	51.72	8502
$
$ BETWEEN WING TRAILING EDEG AND HRIZONATL TAIL LEADING EDGE
$
GAP	19001	GAP3	11
	408.920	41.50	0.0	44.489	8504
	408.92	111.13	0.0	102.91	8505
$
$ BEHIND WING TRAILING EDEG
$
GAP	19501	GAP4	11
	408.92	111.13	0.0	102.91	8505
	408.93	180.0	0.0	102.9	8506
AEFACT	8502	0.0000	13.0887	30.7970	47.7353	63.9038	80.0722	92.3910	+AE10
+AE10	97.4637100.0000
AEFACT	8503	0.0000	14.2857	28.5714	42.8571	57.1429	71.4286	82.1429	+AE10
+AE10	92.8571100.0000
AEFACT	8504	0.0000	12.5000	25.0000	33.3333	41.6667	50.0000	58.3333	+AE10
+AE10	66.6667	75.0000	87.5000100.0000
AEFACT	8505	0.0000	3.2553	8.1139	15.6739	26.9459	42.9113	59.3820	+AE10
+AE10	77.1198	91.8181	97.8914100.0000
AEFACT	8506	0.0000	1.3747	6.5792	15.6739	26.9459	42.9113	59.3820	+AE10
+AE10	77.1198	91.8181	97.8914100.0000
AEFACT	8507	0.0000	98.000	99.150	100.000
AEFACT	58507	0.0000	0.850	2.0	100.000
$...1..|...2...|...3...|...4...|...5...|...6...|...7...|...8...|...9...|...10..
$ AHEAD LHS INBOARD & OUTBOARD STRAKE
$
$--- LEFT SIDE
$...1..|...2...|...3...|...4...|...5...|...6...|...7...|...8...|...9...|...10..|
GAP	518001	GAP51	9
	183.6545-54.0	0.0	75.0855	8503
	110.0	-30.0	0.0	68.0
$
$ AHEAD WING LEADING EDGE
$
GAP	518501	GAP52	4	9	58507
	312.75	-180.0	0.0	51.72	8502
	183.6545-54.0	0.0	75.0855	8503
$
$ BETWEEN WING TRAILING EDEG AND HRIZONATL TAIL LEADING EDGE
$
GAP	519001	GAP53	11
	408.92	-111.13	0.0	102.91	8505
	408.920	-41.50	0.0	44.489	8504
$
$ BEHIND WING TRAILING EDEG
$
GAP	519501	GAP54	11
	408.93	-180.0	0.0	102.9	8506
	408.92	-111.13	0.0	102.91	8505
$
$ TO THE RHS OF LAUNCHER
$
$
$...1..|...2...|...3...|...4...|...5...|...6...|...7...|...8...|...9...|...10..|
GAP	14501	GAP5	1000	9	39
	9.16	-2.50	0.0	102.95	1500006
	9.16	8.50	0.0	102.95	1500006
$
$	TO	THE	LHS	OF	LAUNCHER
$
GAP	5014501	GAP6	9000	9	39
	9.16	-8.50	0.0	102.95	1500006
	9.16	2.50	0.0	102.95	1500006
$END	OF	GAP
$$$$$$$$$$$$$$$$$$$$$$$$$$$$$$$$$$$$$$$$$$$$$$$$$$$$$$$$$$$$$$$$$$$$$$$$$$$$$$$$
$ $
$ AERODYNAMIC SURFACE PANEL MODEL FOR AIM9-P CANARDS AND FINS AT STATION NO 1 $
$ $
$$$$$$$$$$$$$$$$$$$$$$$$$$$$$$$$$$$$$$$$$$$$$$$$$$$$$$$$$$$$$$$$$$$$$$$$$$$$$$$$
$
$ AIM9-P MISSILE BODY
$
$ACOORD	1000	303.59	188.50	0.0	0.0	0.0	0.0
ACOORD	1000	303.59	188.50	0.0	0.0	0.0
BODY7	1001	AIM9-PR	0	1000	1	4001
$	FOR	LEFT	SIDE
$ACOORD	9000	303.59	-188.50	0.0	0.0	0.0	0.0
ACOORD	9000	303.59	-188.50	0.0	0.0	0.0
BODY7	5001001	AIM9-PL	0	9000	1	4001
SEGMESH	4001	19	9						+SEG11
+SEG11	1	0.00	0.0	0.00					+SEG12
+SEG12	1	3.51	0.0	1.25					+SEG13
+SEG13	1	7.01	0.0	2.50					+SEG14
+SEG14	1	13.66	0.0	2.50					+SEG15
+SEG15	1	20.30	0.0	2.50					+SEG16
+SEG16	1	26.95	0.0	2.50					+SEG17
+SEG17	1	33.60	0.0	2.50					+SEG18
+SEG18	1	40.24	0.0	2.50					+SEG19
+SEG19	1	46.89	0.0	2.50					+SEG20
+SEG20	1	53.53	0.0	2.50					+SEG21
+SEG21	1	60.18	0.0	2.50					+SEG22
+SEG22	1	66.83	0.0	2.50					+SEG23
+SEG23	1	73.47	0.0	2.50					+SEG24
+SEG24	1	80.12	0.0	2.50					+SEG25
+SEG25	1	86.77	0.0	2.50					+SEG26
+SEG26	1	93.41	0.0	2.50					+SEG27
+SEG27	1	100.06	0.0	2.50					+SEG28
+SEG28	1	106.70	0.0	2.50					+SEG29
+SEG29	1	113.35	0.0	2.50
$
$
$ *** AIM9 CANARD #1 AT 45 DEGREES
$
$...1..|...2...|...3...|...4...|...5...|...6...|...7...|...8...|...9...|...10..|
$ACOORD	1000011	302.55	188.500	0.000	0.00	45.00	0.00
ACOORD	1000011	302.55	188.500	0.000	0.00	45.00

$ CAERO7 WID	LABEL	ACOORD	NSPAN	NCHORD	LSPAN	ZTAIC	PAFOIL7
$ 	XRL	YRL	ZRL	RCH	LRCHD	ATTCHR	ACORDR
$ 	XTL	YTL	ZTL	TCH	LTCHD	ATTCHT	ACORDT
CAERO7	1001001	AIM9CR111000011	5	9	1500001	0	0	+CA71
+CA71	10.300	2.500	0.000	8.590	0	1001			+CA72
+CA72	16.350	8.110	0.000	2.540	0	0
$
CAERO7	1001101	AIM9CR121000011	3	9		0	0	0+CA71
+CA71	16.350	8.110	0.000	2.540	0	0			+CA72
+CA72	18.380	11.150	0.000	0.510	0	0
$
$
$ *** AIM9 CANARD #2 AT 135 DEGREES
$
$...1..|...2...|...3...|...4...|...5...|...6...|...7...|...8...|...9...|...10..|
$ACOORD	1000012	302.55	188.500	0.000	0.00	135.00	0.00
ACOORD	1000012	302.55	188.500	0.000	0.00	135.00
CAERO7	1002001	AIM9CR211000012	5	9	1500001	0	0	+CA71
+CA71	10.300	2.500	0.000	8.590	0	1001			+CA72
+CA72	16.350	8.110	0.000	2.540	0	0
$
CAERO7	1002101	AIM9CR221000012	3	9	0	0	0	+CA71
+CA71	16.350	8.110	0.000	2.540	0	0			+CA72
+CA72	18.380	11.150	0.000	0.510	0	0
$
$
$ *** AIM9 CANARD #3 AT 225 DEGREES
$
$...1..|...2...|...3...|...4...|...5...|...6...|...7...|...8...|...9...|...10..|
$ACOORD	1000013	302.55	188.500	0.000	0.00	225.00	0.00
ACOORD	1000013	302.55	188.500	0.000	0.00	225.00
CAERO7	1003001	AIM9CR311000013	5	9	1500001	0	0	+CA71
+CA71	10.300	2.500	0.000	8.590	0	1001			+CA72
+CA72	16.350	8.110	0.000	2.540	0	0
$
CAERO7	1003101	AIM9CR321000013	3	9	0	0	0	+CA71
+CA71	16.350	8.110	0.000	2.540	0	0			+CA72
+CA72	18.380	11.150	0.000	0.510	0	0
$
$
$ *** AIM9 CANARD #4 AT 315 DEGREES
$
$...1..|...2...|...3...|...4...|...5...|...6...|...7...|...8...|...9...|...10..|
$ACOORD	1000014	302.55	188.500	0.000	0.00	315.00	0.00
ACOORD	1000014	302.55	188.500	0.000	0.00	315.00

$ CAERO7 WID	LABEL	ACOORD	NSPAN	NCHORD	LSPAN	ZTAIC	PAFOIL7
$ 	XRL	YRL	ZRL	RCH	LRCHD	ATTCHR	ACORDR
$ 	XTL	YTL	ZTL	TCH	LTCHD	ATTCHT	ACORDT
CAERO7	1004001	AIM9CR411000014	5	9	1500001		0	0+CA71
+CA71	10.300	2.500	0.000	8.590	0	1001			+CA72
+CA72	16.350	8.110	0.000	2.540	0	0	
$
CAERO7	1004101	AIM9CR421000014	3	9	0	0	0	+CA71
+CA71	16.350	8.110	0.000	2.540	0	0			+CA72
+CA72	18.380	11.150	0.000	0.510	0	0
$	--------------------------------------
AEFACT	1500001	0.000	24.064	48.128	74.064	100.000
$
$
$ *** AIM9 FIN #1 AT 45 DEGREES
$
$...1..|...2...|...3...|...4...|...5...|...6...|...7...|...8...|...9...|...10..|
CAERO7	1010001	AIM9FR111000011	3	11	0	0	0	+CA71
+CA71	87.570	2.500	0.000	23.610	0	1001			+CA72
+CA72	88.980	5.200	0.000	22.200	0	0
CAERO7	1011001	AIM9FR121000011	6	11	1500004	0	0	+CA71
+CA71	88.980	5.200	0.000	22.200	0	0			+CA72
+CA72	95.570	11.770	0.000	15.610	0	0
$
$
$ *** AIM9 FIN #2 AT 135 DEGREES
$
$...1..|...2...|...3...|...4...|...5...|...6...|...7...|...8...|...9...|...10..|
CAERO7	1020001	AIM9FR211000012	3	11	0	0	0	+CA71
+CA71	87.570	2.500	0.000	23.610	0	1001			+CA72
+CA72	88.980	5.200	0.000	22.200	0	0
$
CAERO7	1021001	AIM9FR221000012	6	11	1500004	0	0	+CA71
+CA71	88.980	5.200	0.000	22.200	0	0			+CA72
+CA72	95.570	11.770	0.000	15.610	0	0
$
$
$ *** AIM9 FIN #3 AT 225 DEGREES
$
$...1..|...2...|...3...|...4...|...5...|...6...|...7...|...8...|...9...|...10..|
CAERO7	1030001	AIM9FR311000013	3	11	0	0	0	+CA71
+CA71	87.570	2.500	0.000	23.610	0	1001			+CA72
+CA72	88.980	5.200	0.000	22.200	0	0
$
CAERO7	1031001	AIM9FR321000013	6	11	1500004	0	0	+CA71
+CA71	88.980	5.200	0.000	22.200	0	0			+CA72
+CA72	95.570	11.770	0.000	15.610	0	0
$
$
$ *** AIM9 FIN #4 AT 315 DEGREES
$
$...1..|...2...|...3...|...4...|...5...|...6...|...7...|...8...|...9...|...10..|
CAERO7	1040001	AIM9FR411000014	3	11	0	0	0	+CA71
+CA71	87.570	2.500	0.000	23.610	0	1001			+CA72
+CA72	88.980	5.200	0.000	22.200	0	0
$
CAERO7	1041001	AIM9FR421000014	6	11	1500004	0	0	+CA71
+CA71	88.980	5.200	0.000	22.200	0	0			+CA72
+CA72	95.570	11.770	0.000	15.610	0	0
$	--------------------------------------
AEFACT	1500004	0.0000	22.1461	44.2922	67.4277	90.5632	100.000
$
$
$AIM9	GAPS
$
$...1..|...2...|...3...|...4...|...5...|...6...|...7...|...8...|...9...|...10..|
$
$ BETWEEN CANARD TRAILING EDGE AND FIN LEADING EDGE AT 45 DEGREE
$
GAP1	21001001	1001001	1010001	15	11	2500011	12	2500011
YZONEY	11	1010001	L
YZONEY	12	1010001	R
GAP1	41001001	1001001	1011001	15	13	2500011	14	2500011
YZONEY	13	1011001	L
YZONEY	14	1011001	R
$
$ BETWEEN CANARD TRAILING EDGE AND FIN LEADING EDGE AT 135 DEGREE
$
$...1..|...2...|...3...|...4...|...5...|...6...|...7...|...8...|...9...|...10..|
GAP1	21002001	1002001	1020001	15	21	2500011	22	2500011
YZONEY	21	1020001	L
YZONEY	22	1020001	R
GAP1	41002001	1002001	1021001	15	23	2500011	24	2500011
YZONEY	23	1021001	L
YZONEY	24	1021001	R
$
$ BETWEEN CANARD TRAILING EDGE AND FIN LEADING EDGE AT 225 DEGREE
$
$...1..|...2...|...3...|...4...|...5...|...6...|...7...|...8...|...9...|...10..|
GAP1	21003001	1003001	1030001	15	31	2500011	32	2500011
YZONEY	31	1030001	L
YZONEY	32	1030001	R
GAP1	41003001	1003001	1031001	15	33	2500011	34	2500011
YZONEY	33	1031001	L
YZONEY	34	1031001	R
$...1..|...2...|...3...|...4...|...5...|...6...|...7...|...8...|...9...|...10..|
$
$ BETWEEN CANARD TRAILING EDGE AND FIN LEADING EDGE AT 315 DEGREE
$
GAP1	21004001	1004001	1040001	15	41	2500011	42	2500011
YZONEY	41	1040001	L
YZONEY	42	1040001	R
GAP1	41004001	1004001	1041001	15	43	2500011	44	2500011
YZONEY	43	1041001	L
YZONEY	44	1041001	R
AEFACT	2500011	0.000	2.50	5.00	10.0	15.00	25.00	35.00
	50.00	65.00	75.00	85.00	90.00	95.00	97.5	100.0
$$$$$$$$$$$$$$$$$$$$$$$$$$$$$$$$$$$$$$$$$$$$$$$$$$$$$$$$$$$$$$$$$$$$$$$$$$$$$$$$
$	$
$ * * * * FIVE BLOCKS OF MESH TO MODEL RHS AIM9-P MISSILE AT STATION # 1* * $
$ BLOCK ID=11, 12, 13,14,15 $
$ $
$$$$$$$$$$$$$$$$$$$$$$$$$$$$$$$$$$$$$$$$$$$$$$$$$$$$$$$$$$$$$$$$$$$$$$$$$$$$$$$$
$	BLOCK	ID=11	FOR	THE	AIM9-P	MISSILE	BODY	$
$	Y-ZONE:	FROM	-2.5	TO	2.5	$
$	MISSILE	BODY	(BODY7=1001)	$
$$$$$$$$$$$$$$$$$$$$$$$$$$$$$$$$$$$$$$$$$$$$$$$$$$$$$$$$$$$$$$$$$$$$$$$$$$$$$$$$
$...1..|...2...|...3...|...4...|...5...|...6...|...7...|...8...|...9...|...10..|
BLOCK	11	1000	-100.	250.0	-20.00	20.00	-20.00	20.00
	-2.50	2.50	1001
MESHPRM	11	11	0.005	0.005	1.05	1.2	1.2
$$$$$$$$$$$$$$$$$$$$$$$$$$$$$$$$$$$$$$$$$$$$$$$$$$$$$$$$$$$$$$$$$$$$$$$$$$$$$$$$
$ BLOCK ID=12 FOR THE FIN AND CABARN AT 45 DEGREES IN ACOORD ID=1000011 $
$ Y-ZONE 1 : FROM 2.5 TO 5.2 $
$ CANARDS (CAERO7=1001001),FIN (CAERO7=1010001) AND GAP1=21001001 $
$ Y-ZONE 2 : FROM 5.28 TO 8.11 $
$ CANARDS (CAERO7=1001001),FIN (CAERO7=1011001) AND GAP1=41001001 $
$ Y-ZONE 3 : FROM 8.11 TO 11.5 $
$ CANARDS (CAERO7=1001101),FIN (CAERO7=1011001) AND GAP1=41001001 $
$ Y-ZONE 4 : FROM 11.5 TO 11.77 $
$ FIN (CAERO7=1011001) AND GAP1=41001001 $
$$$$$$$$$$$$$$$$$$$$$$$$$$$$$$$$$$$$$$$$$$$$$$$$$$$$$$$$$$$$$$$$$$$$$$$$$$$$$$$$
$
BLOCK	12	1000011	-40.	180.0	2.50	18.00	-8.0	8.0
	2.50	5.20	1001001	101000121001001
	5.20	8.11	1001001	101100141001001
	8.11	11.15	1001101	101100141001001
	11.15	11.77	1011001	41001001
MESHPRM	12	12	0.005	0.005	-1.15	1.1	1.15
$$$$$$$$$$$$$$$$$$$$$$$$$$$$$$$$$$$$$$$$$$$$$$$$$$$$$$$$$$$$$$$$$$$$$$$$$$$$$$$$
$ BLOCK ID=13 FOR THE FIN AND CABARN AT 135 DEGREES IN ACOORD ID=1000012 $
$ Y-ZONE 1 : FROM 2.5 TO 5.2 $
$ CANARDS (CAERO7=1002001),FIN (CAERO7=1020001) AND GAP1=21002001 $
$ Y-ZONE 2 : FROM 5.28 TO 8.11 $
$ CANARDS (CAERO7=1002001),FIN (CAERO7=1021001) AND GAP1=41002001 $
$ Y-ZONE 3 : FROM 8.11 TO 11.5 $
$ CANARDS (CAERO7=1002101),FIN (CAERO7=1021001) AND GAP1=41002001 $
$ Y-ZONE 4 : FROM 11.5 TO 11.77 $
$ FIN (CAERO7=1021001) AND GAP1=41002001 $
$$$$$$$$$$$$$$$$$$$$$$$$$$$$$$$$$$$$$$$$$$$$$$$$$$$$$$$$$$$$$$$$$$$$$$$$$$$$$$$$
$...1..|...2...|...3...|...4...|...5...|...6...|...7...|...8...|...9...|...10..|
BLOCK	13	1000012	-40.	180.0	2.50	18.00	-8.0	8.0
	2.50	5.20	1002001	102000121002001
	5.20	8.11	1002001	102100141002001
	8.11	11.15	1002101	102100141002001
	11.15	11.77	1021001	41002001
MESHPRM	13	13	0.005	0.005	-1.15	1.1	1.15
$$$$$$$$$$$$$$$$$$$$$$$$$$$$$$$$$$$$$$$$$$$$$$$$$$$$$$$$$$$$$$$$$$$$$$$$$$$$$$$$
$ BLOCK ID=14 FOR THE FIN AND CABARN AT 225 DEGREES IN ACOORD ID=1000013 $
$ Y-ZONE 1 : FROM 2.5 TO 5.2 $
$ CANARDS (CAERO7=1003001),FIN (CAERO7=1030001) AND GAP1=21003001 $
$ Y-ZONE 2 : FROM 5.28 TO 8.11 $
$ CANARDS (CAERO7=1003001),FIN (CAERO7=1031001) AND GAP1=41003001 $
$ Y-ZONE 3 : FROM 8.11 TO 11.5 $
$ CANARDS (CAERO7=1003101),FIN (CAERO7=1031001) AND GAP1=41003001 $
$ Y-ZONE 4 : FROM 11.5 TO 11.77 $
$ FIN (CAERO7=1031001) AND GAP1=41003001 $
$$$$$$$$$$$$$$$$$$$$$$$$$$$$$$$$$$$$$$$$$$$$$$$$$$$$$$$$$$$$$$$$$$$$$$$$$$$$$$$$
$
BLOCK	14	1000013	-40.	180.0	2.50	18.00	-8.0	8.0
	2.50	5.20	1003001	103000121003001
	5.20	8.11	1003001	103100141003001
	8.11	11.15	1003101	103100141003001
	11.15	11.77	1031001	41003001
MESHPRM	14	14	0.005	0.005	-1.15	1.1	1.15
$$$$$$$$$$$$$$$$$$$$$$$$$$$$$$$$$$$$$$$$$$$$$$$$$$$$$$$$$$$$$$$$$$$$$$$$$$$$$$$$
$ BLOCK ID=15 FOR THE FIN AND CABARN AT 315 DEGREES IN ACOORD ID=1000013 $
$ Y-ZONE 1 : FROM 2.5 TO 5.2 $
$ CANARDS (CAERO7=1004001),FIN (CAERO7=1040001) AND GAP1=21004001 $
$ Y-ZONE 2 : FROM 5.28 TO 8.11 $
$ CANARDS (CAERO7=1004001),FIN (CAERO7=1041001) AND GAP1=41004001 $
$ Y-ZONE 3 : FROM 8.11 TO 11.5 $
$ CANARDS (CAERO7=1004101),FIN (CAERO7=1041001) AND GAP1=41004001 $
$ Y-ZONE 4 : FROM 11.5 TO 11.77 $
$ FIN (CAERO7=1041001) AND GAP1=41004001 $
$$$$$$$$$$$$$$$$$$$$$$$$$$$$$$$$$$$$$$$$$$$$$$$$$$$$$$$$$$$$$$$$$$$$$$$$$$$$$$$$
$...1..|...2...|...3...|...4...|...5...|...6...|...7...|...8...|...9...|...10..|
$
BLOCK	15	1000014	-40.	180.0	2.50	18.00	-8.0	8.0
	2.50	5.20	1004001	104000121004001
	5.20	8.11	1004001	104100141004001
	8.11	11.15	1004101	104100141004001
	11.15	11.77	1041001	41004001
MESHPRM	15	15	0.005	0.005	-1.15	1.1	1.15
$$$$$$$$$$$$$$$$$$$$$$$$$$$$$$$$$$$$$$$$$$$$$$$$$$$$$$$$$$$$$$$$$$$$$$$$$$$$$$$$
$ $
$ AERODYNAMIC SURFACE PANEL MODEL FOR AIM9-P CANARDS AND FINS AT STATION NO 9 $
$ $
$$$$$$$$$$$$$$$$$$$$$$$$$$$$$$$$$$$$$$$$$$$$$$$$$$$$$$$$$$$$$$$$$$$$$$$$$$$$$$$$
$
$
$	***	AIM9 CANARD #1 AT 45 DEGREES
$
$...1..|...2...|...3...|...4...|...5...|...6...|...7...|...8...|...9...|...10..|
$ACOORD	9000011	302.55	-188.500 0.0	0.00	45.00	0.00
ACOORD	9000011	302.55	-188.500 0.0	0.00	45.00
CAERO7	9001001	AIM9CL119000011	5	9	1500001	0	0	+CA71
+CA71	10.300	2.500	0.000	8.590	0	5001001			+CA72
+CA72	16.350	8.110	0.000	2.540	0	0
$
CAERO7	9001101	AIM9CL129000011	3	9	0	0	0	+CA71
+CA71	16.350	8.110	0.000	2.540	0	0			+CA72
+CA72	18.380	11.150	0.000	0.510	0	0
$
$
$	***	AIM9	CANARD	#2	AT	135	DEGREES
$
$...1..|...2...|...3...|...4...|...5...|...6...|...7...|...8...|...9...|...10..|
$ACOORD	9000012	302.55	-188.500 0.0	0.00	135.00	0.00
ACOORD	9000012	302.55	-188.500 0.0	0.00	135.00
CAERO7	9002001	AIM9CL219000012	5	9	1500001	0	0	+CA71
+CA71	10.300	2.500	0.000	8.590	0	5001001			+CA72
+CA72	16.350	8.110	0.000	2.540	0	0
$
CAERO7	9002101	AIM9CL229000012	3	9	0	0	0	+CA71
+CA71	16.350	8.110	0.000	2.540	0	0			+CA72
+CA72	18.380	11.150	0.000	0.510	0	0
$
$
$ *** AIM9 CANARD #3 AT 225 DEGREES
$
$...1..|...2...|...3...|...4...|...5...|...6...|...7...|...8...|...9...|...10..|
$ACOORD	9000013	302.55	-188.500 0.0	0.00	225.00	0.00
ACOORD	9000013	302.55	-188.500 0.0	0.00	225.00
CAERO7	9003001	AIM9CL319000013	5	9	1500001	0	0		+CA71
+CA71	10.300	2.500	0.000	8.590	0	5001001				+CA72
+CA72	16.350	8.110	0.000	2.540	0	0
$
CAERO7	9003101	AIM9CL329000013	3	9	0	0	0		+CA71
+CA71	16.350	8.110	0.000	2.540	0	0				+CA72
+CA72	18.380	11.150	0.000	0.510	0	0
$
$
$ *** AIM9 CANARD #4 AT 315 DEGREES
$
$...1..|...2...|...3...|...4...|...5...|...6...|...7...|...8...|...9...|...10..|	
$ACOORD	9000014	302.55	-188.500 0.0	0.00	315.00	0.00
ACOORD	9000014	302.55	-188.500 0.0	0.00	315.00
CAERO7	9004001	AIM9CL419000014	5	9	1500001	0	0		+CA71
+CA71	10.300	2.500	0.000	8.590	0	5001001				+CA72
+CA72	16.350	8.110	0.000	2.540	0	0
$
CAERO7	9004101	AIM9CL429000014	3	9	0	0	0		+CA71
+CA71	16.350	8.110	0.000	2.540	0	0				+CA72
+CA72	18.380	11.150	0.000	0.510	0	0
$ --------------------------------------
$
$
$ *** AIM9 FIN #1 AT 45 DEGREES
$
$...1..|...2...|...3...|...4...|...5...|...6...|...7...|...8...|...9...|...10..|
CAERO7	9010001	AIM9FL119000011	3	11	0	0	0		+CA71
+CA71	87.570	2.500	0.000	23.610	0	5001001				+CA72
+CA72	88.980	5.200	0.000	22.200	0	0
CAERO7	9011001	AIM9FL129000011	6	11	1500004	0	0		+CA71
+CA71	88.980	5.200	0.000	22.200	0	0				+CA72
+CA72	95.570	11.770	0.000	15.610	0	0
$
$
$ *** AIM9 FIN #2 AT 135 DEGREES
$
$...1..|...2...|...3...|...4...|...5...|...6...|...7...|...8...|...9...|...10..|
CAERO7	9020001	AIM9FL219000012	3	11	0	0	0	+CA71
+CA71	87.570	2.500	0.000	23.610	0	5001001			+CA72
+CA72	88.980	5.200	0.000	22.200	0	0
$
CAERO7	9021001	AIM9FL229000012	6	11	1500004	0	0	+CA71
+CA71	88.980	5.200	0.000	22.200	0	0			+CA72
+CA72	95.570	11.770	0.000	15.610	0	0
$
$
$ *** AIM9 FIN #3 AT 225 DEGREES
$
$...1..|...2...|...3...|...4...|...5...|...6...|...7...|...8...|...9...|...10..|
CAERO7	9030001	AIM9FL319000013	3	11	0	0	0	+CA71
+CA71	87.570	2.500	0.000	23.610	0	5001001			+CA72
+CA72	88.980	5.200	0.000	22.200	0	0
$
CAERO7	9031001	AIM9FL329000013	6	11	1500004	0	0	+CA71
+CA71	88.980	5.200	0.000	22.200	0	0			+CA72
+CA72	95.570	11.770	0.000	15.610	0	0
$
$
$ *** AIM9 FIN #4 AT 315 DEGREES
$
$...1..|...2...|...3...|...4...|...5...|...6...|...7...|...8...|...9...|...10..|
CAERO7	9040001	AIM9FL419000014	3	11	0	0	0	+CA71
+CA71	87.570	2.500	0.000	23.610	0	5001001			+CA72
+CA72	88.980	5.200	0.000	22.200	0	0
$
CAERO7	9041001	AIM9FL429000014	6	11	1500004	0	0	+CA71
+CA71	88.980	5.200	0.000	22.200	0	0			+CA72
+CA72	95.570	11.770	0.000	15.610	0	0
$ --------------------------------------
$
$
$AIM9	GAPS
$
$...1..|...2...|...3...|...4...|...5...|...6...|...7...|...8...|...9...|...10..|
$
$ BETWEEN CANARD TRAILING EDGE AND FIN LEADING EDGE AT 45 DEGREE
$
GAP1	29001001	9001001	9010001	15	911	2500011	912	2500011
YZONEY	911	9010001	L
YZONEY	912	9010001	R
GAP1	49001001	9001001	9011001	15	913	2500011	914	2500011
YZONEY	913	9011001	L
YZONEY	914	9011001	R
$
$ BETWEEN CANARD TRAILING EDGE AND FIN LEADING EDGE AT 135 DEGREE
$
$...1..|...2...|...3...|...4...|...5...|...6...|...7...|...8...|...9...|...10..|
GAP1	29002001	9002001	9020001	15	921	2500011	922	2500011
YZONEY	921	9020001	L
YZONEY	922	9020001	R
GAP1	49002001	9002001	9021001	15	923	2500011	924	2500011
YZONEY	923	9021001	L
YZONEY	924	9021001	R
$
$ BETWEEN CANARD TRAILING EDGE AND FIN LEADING EDGE AT 225 DEGREE
$
$...1..|...2...|...3...|...4...|...5...|...6...|...7...|...8...|...9...|...10..|
GAP1	29003001	9003001	9030001	15	931	2500011	932	2500011
YZONEY	931	9030001	L
YZONEY	932	9030001	R
GAP1	49003001	9003001	9031001	15	933	2500011	934	2500011
YZONEY	933	9031001	L
YZONEY	934	9031001	R
$...1..|...2...|...3...|...4...|...5...|...6...|...7...|...8...|...9...|...10..|
$
$ BETWEEN CANARD TRAILING EDGE AND FIN LEADING EDGE AT 315 DEGREE
$
GAP1	29004001	9004001	9040001	15	941	2500011	942	2500011
YZONEY	941	9040001	L
YZONEY	942	9040001	R
GAP1	49004001	9004001	9041001	15	943	2500011	944	2500011
YZONEY	943	9041001	L
YZONEY	944	9041001	R
$$$$$$$$$$$$$$$$$$$$$$$$$$$$$$$$$$$$$$$$$$$$$$$$$$$$$$$$$$$$$$$$$$$$$$$$$$$$$$$$
$	$
$ * * * * FIVE BLOCKS OF MESH TO MODEL LHS AIM9-P MISSILE AT STATION # 9 * * $
$ BLOCK ID=91, 92, 93,94,95 $
$ $
$$$$$$$$$$$$$$$$$$$$$$$$$$$$$$$$$$$$$$$$$$$$$$$$$$$$$$$$$$$$$$$$$$$$$$$$$$$$$$$$
$ BLOCK ID=91 FOR THE AIM9-P MISSILE BODY $
$ Y-ZONE: FROM -2.5 TO 2.5 $
$ MISSILE BODY (BODY7=5001001) $
$$$$$$$$$$$$$$$$$$$$$$$$$$$$$$$$$$$$$$$$$$$$$$$$$$$$$$$$$$$$$$$$$$$$$$$$$$$$$$$$
$...1..|...2...|...3...|...4...|...5...|...6...|...7...|...8...|...9...|...10..|
BLOCK	91	9000	-100.	250.0	-20.00	20.00	-20.00	20.00
	-2.50	2.50	5001001
MESHPRM	91	91	0.005	0.005	1.05	1.2	1.2
$$$$$$$$$$$$$$$$$$$$$$$$$$$$$$$$$$$$$$$$$$$$$$$$$$$$$$$$$$$$$$$$$$$$$$$$$$$$$$$$
$ BLOCK ID=92 FOR THE FIN AND CABARN AT 45 DEGREES IN ACOORD ID=9000011 $
$ Y-ZONE 1 : FROM 2.5 TO 5.2 $
$ CANARDS (CAERO7=9001001),FIN (CAERO7=9010001) AND GAP1=29001001 $
$ Y-ZONE 2 : FROM 5.28 TO 8.11 $
$ CANARDS (CAERO7=9001001),FIN (CAERO7=9011001) AND GAP1=49001001 $
$ Y-ZONE 3 : FROM 8.11 TO 11.5 $
$ CANARDS (CAERO7=9001101),FIN (CAERO7=9011001) AND GAP1=49001001 $
$ Y-ZONE 4 : FROM 11.5 TO 11.77 $
$ FIN (CAERO7=9011001) AND GAP1=49001001 $
$$$$$$$$$$$$$$$$$$$$$$$$$$$$$$$$$$$$$$$$$$$$$$$$$$$$$$$$$$$$$$$$$$$$$$$$$$$$$$$$
$
BLOCK	92	9000011	-40.	180.0	2.50	18.00	-8.0	8.0
	2.50	5.20	9001001	901000129001001
	5.20	8.11	9001001	901100149001001
	8.11	11.15	9001101	901100149001001
	11.15	11.77	9011001	49001001
MESHPRM	92	92	0.005	0.005	-1.15	1.1	1.15
$$$$$$$$$$$$$$$$$$$$$$$$$$$$$$$$$$$$$$$$$$$$$$$$$$$$$$$$$$$$$$$$$$$$$$$$$$$$$$$$
$ BLOCK ID=93 FOR THE FIN AND CABARN AT 135 DEGREES IN ACOORD ID=9000012 $
$ Y-ZONE 1 : FROM 2.5 TO 5.2 $
$ CANARDS (CAERO7=9002001),FIN (CAERO7=9020001) AND GAP1=29002001 $
$ Y-ZONE 2 : FROM 5.28 TO 8.11 $
$ CANARDS (CAERO7=9002001),FIN (CAERO7=9021001) AND GAP1=49002001 $
$ Y-ZONE 3 : FROM 8.11 TO 11.5 $
$ CANARDS (CAERO7=9002101),FIN (CAERO7=9021001) AND GAP1=49002001 $
$ Y-ZONE 4 : FROM 11.5 TO 11.77 $
$ FIN (CAERO7=9021001) AND GAP1=49002001 $
$$$$$$$$$$$$$$$$$$$$$$$$$$$$$$$$$$$$$$$$$$$$$$$$$$$$$$$$$$$$$$$$$$$$$$$$$$$$$$$$
$...1..|...2...|...3...|...4...|...5...|...6...|...7...|...8...|...9...|...10..|
BLOCK	93	9000012	-40.	180.0	2.50	18.00	-8.0	8.0
	2.50	5.20	9002001	902000129002001
	5.20	8.11	9002001	902100149002001
	8.11	11.15	9002101	902100149002001
	11.15	11.77	9021001	49002001
MESHPRM	93	93	0.005	0.005	-1.15	1.1	1.15
$$$$$$$$$$$$$$$$$$$$$$$$$$$$$$$$$$$$$$$$$$$$$$$$$$$$$$$$$$$$$$$$$$$$$$$$$$$$$$$$
$ BLOCK ID=94 FOR THE FIN AND CABARN AT 225 DEGREES IN ACOORD ID=9000013 $
$ Y-ZONE 1 : FROM 2.5 TO 5.2 $
$ CANARDS (CAERO7=9003001),FIN (CAERO7=9030001) AND GAP1=29003001 $
$ Y-ZONE 2 : FROM 5.28 TO 8.11 $
$ CANARDS (CAERO7=9003001),FIN (CAERO7=9031001) AND GAP1=49003001 $
$ Y-ZONE 3 : FROM 8.11 TO 11.5 $
$ CANARDS (CAERO7=9003101),FIN (CAERO7=9031001) AND GAP1=49003001 $
$ Y-ZONE 4 : FROM 11.5 TO 11.77 $
$ FIN (CAERO7=9031001) AND GAP1=49003001 $
$$$$$$$$$$$$$$$$$$$$$$$$$$$$$$$$$$$$$$$$$$$$$$$$$$$$$$$$$$$$$$$$$$$$$$$$$$$$$$$$
$
BLOCK	94	9000013	-40.	180.0	2.50	18.00	-8.0	8.0
	2.50	5.20	9003001	903000129003001
	5.20	8.11	9003001	903100149003001
	8.11	11.15	9003101	903100149003001
	11.15	11.77	9031001	49003001
MESHPRM	94	94	0.005	0.005	-1.15	1.1	1.15
$$$$$$$$$$$$$$$$$$$$$$$$$$$$$$$$$$$$$$$$$$$$$$$$$$$$$$$$$$$$$$$$$$$$$$$$$$$$$$$$
$ BLOCK ID=95 FOR THE FIN AND CABARN AT 315 DEGREES IN ACOORD ID=9000013 $
$ Y-ZONE 1 : FROM 2.5 TO 5.2 $
$ CANARDS (CAERO7=9004001),FIN (CAERO7=9040001) AND GAP1=29004001 $
$ Y-ZONE 2 : FROM 5.28 TO 8.11 $
$ CANARDS (CAERO7=9004001),FIN (CAERO7=9041001) AND GAP1=49004001 $
$ Y-ZONE 3 : FROM 8.11 TO 11.5 $
$ CANARDS (CAERO7=9004101),FIN (CAERO7=9041001) AND GAP1=49004001 $
$ Y-ZONE 4 : FROM 11.5 TO 11.77 $
$ FIN (CAERO7=9041001) AND GAP1=49004001 $
$$$$$$$$$$$$$$$$$$$$$$$$$$$$$$$$$$$$$$$$$$$$$$$$$$$$$$$$$$$$$$$$$$$$$$$$$$$$$$$$
$...1..|...2...|...3...|...4...|...5...|...6...|...7...|...8...|...9...|...10..|
$
BLOCK	95	9000014	-40.	180.0	2.50	18.00	-8.0	8.0
	2.50	5.20	9004001	904000129004001
	5.20	8.11	9004001	904100149004001
	8.11	11.15	9004101	904100149004001
	11.15	11.77	9041001	49004001
MESHPRM	95	95	0.005	0.005	-1.15	1.1	1.15
$
$$$$$$$$$$$$$$$$$$$$$$$$$$$$$$$$$$$$$$$$$$$$$$$$$$$$$$$$$$$$$$$$$$$$$$$$$$$$$$$$
$ $
$ AERODYNAMIC SURFACE PANEL MODEL FOR LAU-129 LAUNCHER AND ADAPTER AT $
$ STATION NO 2. $
$ $
$$$$$$$$$$$$$$$$$$$$$$$$$$$$$$$$$$$$$$$$$$$$$$$$$$$$$$$$$$$$$$$$$$$$$$$$$$$$$$$$
$
$ DEFINED IN A LOCAL COORDINATE SPECIFIED BY ACOORD ID=1000
$ IN THIS COORDINATE, BOTH LAU-129 ADAPTER AND LAUNCHER BECOME HORIZONTAL
$ SURFACES
$
$ACOORD	2000	302.7	157.	-13.63	0.0	90.	0.0
ACOORD	2000	302.7	157.	-13.63	0.0	90.
$
$	LAU-129	ADAPTER
$
CAERO7	2001	RLAUAD	2000	5	7	0	0		+CA71
+CA71	53.641	6.00	0.	28.90					+CA72
+CA72	59.600	13.63	0.	25.60
$
$	LAU-129	LAUNCHER
$
$...1..|...2...|...3...|...4...|...5...|...6...|...7...|...8...|...9...|...10..|
CAERO7	2501	RLAULU	2000	5	15	0	0		+CA71
+CA71	0.0	0.0	0.	102.90	0				+CA72
+CA72	0.0	6.0	0.	102.90	0
$
$$$$$$$$$$$$$$$$$$$$$$$$$$$$$$$$$$$$$$$$$$$$$$$$$$$$$$$$$$$$$$$$$$$$$$$$$$$$$$$$
$ BLOCK ID=21 FOR RHS LAU-129 LAUNCHER AND ADAPTER AT STATION # 2 $
$ DEFINED IN ACOORD=2000 $
$ Y-ZONE 1 : FROM 0.0 TO 6.0 $
$ LAU-129 LAUNCHER (CAERO7=8501) $
$ Y-ZONE 2 : FROM 6.0 TO 13.63 $
$ LAU-129 ADAPTER (CAERO7=8001) $
$$$$$$$$$$$$$$$$$$$$$$$$$$$$$$$$$$$$$$$$$$$$$$$$$$$$$$$$$$$$$$$$$$$$$$$$$$$$$$$$
$
BLOCK	21	2000	-50.0	200.0	-15.00	13.63	-15.0	15.0
	0.0	6.0	2501
	6.0	13.63	2001
MESHPRM	21	21	0.01	0.01	1.15	1.15	1.15
$$$$$$$$$$$$$$$$$$$$$$$$$$$$$$$$$$$$$$$$$$$$$$$$$$$$$$$$$$$$$$$$$$$$$$$$$$$$$$$$
$ $
$ AERODYNAMIC SURFACE PANEL MODEL FOR LAU-129 LAUNCHER AND ADAPTER AT $
$ STATION NO 8. $
$ $
$$$$$$$$$$$$$$$$$$$$$$$$$$$$$$$$$$$$$$$$$$$$$$$$$$$$$$$$$$$$$$$$$$$$$$$$$$$$$$$$
$...1..|...2...|...3...|...4...|...5...|...6...|...7...|...8...|...9...|...10..|
$ACOORD	8000	302.7	-157.	-13.63	0.0	90.	0.0
ACOORD	8000	302.7	-157.	-13.63	0.0	90.
CAERO7	5002001	LLAUAD	8000	5	7	0	0		+CA71
+CA71	53.641	6.00	0.	28.90					+CA72
+CA72	59.600	13.63	0.	25.60
CAERO7	5002501	LLAULU	8000	5	15	0	0		+CA71
+CA71	0.0	0.0	0.	102.90	0				+CA72
+CA72	0.0	6.0	0.	102.90	0
$
$$$$$$$$$$$$$$$$$$$$$$$$$$$$$$$$$$$$$$$$$$$$$$$$$$$$$$$$$$$$$$$$$$$$$$$$$$$$$$$$
$ BLOCK ID=81 FOR LHS LAU-129 LAUNCHER AND ADAPTER AT STATION # 8 $
$ DEFINED IN ACOORD=8000 $
$ Y-ZONE 1 : FROM 0.0 TO 6.0 $
$ LAU-129 LAUNCHER (CAERO7=8501) $
$ Y-ZONE 2 : FROM 6.0 TO 13.63 $
$ LAU-129 ADAPTER (CAERO7=8001) $
$$$$$$$$$$$$$$$$$$$$$$$$$$$$$$$$$$$$$$$$$$$$$$$$$$$$$$$$$$$$$$$$$$$$$$$$$$$$$$$$
BLOCK	81	8000	-50.0	200.0	-15.00	13.63	-15.0	15.0
	0.0	6.0	5002501
	6.0	13.63	5002001
MESHPRM	81	81	0.01	0.01	1.15	1.15	1.15
$
$$$$$$$$$$$$$$$$$$$$$$$$$$$$$$$$$$$$$$$$$$$$$$$$$$$$$$$$$$$$$$$$$$$$$$$$$$$$$$$$
$ $
$ AERODYNAMIC SURFACE PANEL MODEL FOR MK84 BOMB AT STATION NO 3 $
$ $
$$$$$$$$$$$$$$$$$$$$$$$$$$$$$$$$$$$$$$$$$$$$$$$$$$$$$$$$$$$$$$$$$$$$$$$$$$$$$$$$
$...1..|...2...|...3...|...4...|...5...|...6...|...7...|...8...|...9...|...10..|
$	MK84	BOMB	BODY
$
$ACOORD	3000	276.10	120.0	-27.0	0.0	0.0	0.0
ACOORD	3000	276.10	120.0	-27.0	0.0	0.0
BODY7	3001	MK84_R	0	3000	1	3001
$SEGMESH 3001	21	13	50.	50.	50.	50.	0.1
SEGMESH	3001	21	13	51.		53.	54.	0.1
	1	0.000	0.000	0.000				all
	1	7.546	0.000	3.307				all
	1	15.092	0.000	5.319				all
	1	22.637	0.000	6.581				all
	1	30.183	0.000	7.502				all
	1	37.729	0.000	8.180				all
	1	45.275	0.000	8.689				all
	1	52.820	0.000	8.983				all
	1	60.366	0.000	8.982				all
	1	67.912	0.000	8.987				all
	1	75.458	0.000	8.992				all
	1	83.003	0.000	8.905				all
	1	90.549	0.000	8.632				all
	1	98.095	0.000	8.228				all
	1	105.641	0.000	7.472				all
	1	113.186	0.000	6.630				all
	1	120.732	0.000	5.775				all
	1	128.278	0.000	4.961				all
	1	135.824	0.000	4.092				all
	1	143.369	0.000	3.201				all
	1	150.915	0.000	2.306				all
$
$ MK84 PYLON
$
$ CAERO7 WID	LABEL	ACOORD	NSPAN	NCHORD	LSPAN	ZTAIC	PAFOIL7
$ 	XRL	YRL	ZRL	RCH	LRCHD	ATTCHR	ACORDR
$ 	XTL	YTL	ZTL	TCH	LTCHD	ATTCHT	ACORDT
CAERO7	3501	MK84PYLR3000	10	10		0	0	+CA71
+CA71	23.90	0.00	9.00	104.50	3001				+CA72
+CA72	63.90	0.00	27.0	51.00
$
$ MK84 FINS
$
$ACOORD	3601	277.420	120.000	-27.00	0.00	45.00	0.00
$ACOORD	3701	277.420	120.000	-27.00	0.00	135.00	0.00
$ACOORD	3801	277.420	120.000	-27.00	0.00	225.00	0.00
$ACOORD	3901	277.420	120.000	-27.00	0.00	315.00	0.00
ACOORD	3601	277.420	120.000	-27.00	0.00	45.00
ACOORD	3701	277.420	120.000	-27.00	0.00	135.00
ACOORD	3801	277.420	120.000	-27.00	0.00	225.00
ACOORD	3901	277.420	120.000	-27.00	0.00	315.00
$
$ *** FIN #1 ***
$
$ CAERO7 WID	LABEL	ACOORD	NSPAN	NCHORD	LSPAN	ZTAIC	PAFOIL7
$ 	XRL	YRL	ZRL	RCH	LRCHD	ATTCHR	ACORDR
$ 	XTL	YTL	ZTL	TCH	LTCHD	ATTCHT	ACORDT
CAERO7	3601	MK84FIR13601	7	11		0	0	+CA71
+CA71	132.700	4.480	0.000	17.620	0	3001			+CA72
+CA72	140.870	12.660	0.000	9.450	0	0
$
$ *** FIN #2 ***
$
CAERO7	3701	MK84FIR23701	7	11		0	0	+CA71
+CA71	132.700	4.480	0.000	17.620	0	3001			+CA72
+CA72	140.870	12.660	0.000	9.450	0	0
$
$ *** FIN #3 ***
$
CAERO7	3801	MK84FIR33801	7	11		0	0	+CA71
+CA71	132.700	4.480	0.000	17.620	0	3001			+CA72
+CA72	140.870	12.660	0.000	9.450	0	0
$
$ *** FIN #4 ***
$
CAERO7	3901	MK84FIR43901	7	11		0	0	+CA71
+CA71	132.700	4.480	0.000	17.620	0	3001			+CA72
+CA72	140.870	12.660	0.000	9.450	0	0
AEFACT	211	0.00	50.00	100.00
$$$$$$$$$$$$$$$$$$$$$$$$$$$$$$$$$$$$$$$$$$$$$$$$$$$$$$$$$$$$$$$$$$$$$$$$$$$$$$$$
$ $
$ * * * * FIVE BLOCKS OF MESH TO MODEL RHS MK84 BOMB AT STATION # 3 * * * $
$ BLOCK ID=31, 32, 33, 34, AND 35 $
$ $
$$$$$$$$$$$$$$$$$$$$$$$$$$$$$$$$$$$$$$$$$$$$$$$$$$$$$$$$$$$$$$$$$$$$$$$$$$$$$$$$
$ BLOCK ID=31 FOR THE MK84 BODY $
$ ONE Y-ZONE: FROM -9.0 TO 9.0 IN THE LOCAL COORDINATES OF ACOORD=3000 $
$ BOMB BODY (BODY7=3001) AND BOMB PYLON (CAERO7=3501) $
$$$$$$$$$$$$$$$$$$$$$$$$$$$$$$$$$$$$$$$$$$$$$$$$$$$$$$$$$$$$$$$$$$$$$$$$$$$$$$$$
$...1..|...2...|...3...|...4...|...5...|...6...|...7...|...8...|...9...|...10..|
$
BLOCK	31	3000	-100.	300.0	-30.00	30.00	-55.0	27.0
	-9.00	9.00	3001	3501
MESHPRM	31	31	0.01	0.01	1.15	1.15	1.15
$
$$$$$$$$$$$$$$$$$$$$$$$$$$$$$$$$$$$$$$$$$$$$$$$$$$$$$$$$$$$$$$$$$$$$$$$$$$$$$$$$
$ BLOCK ID=32 FOR THE BOMB FIN AT 45 DEGREES $
$ ONE Y-ZONE: FROM 4.48 TO 12.66 IN THE LOCAL COORDINATES OF ACOORD=3601 $
$ BOMB FIN AT 45 DEGREES (CAERO7=3601) $
$$$$$$$$$$$$$$$$$$$$$$$$$$$$$$$$$$$$$$$$$$$$$$$$$$$$$$$$$$$$$$$$$$$$$$$$$$$$$$$$
$...1..|...2...|...3...|...4...|...5...|...6...|...7...|...8...|...9...|...10..|
BLOCK	32	3601	120.	180.0	4.480	25.00	-12.0	12.0
	4.480	12.660	3601
MESHPRM	32	32	0.02	0.005	-1.05	1.1	1.15
$
$$$$$$$$$$$$$$$$$$$$$$$$$$$$$$$$$$$$$$$$$$$$$$$$$$$$$$$$$$$$$$$$$$$$$$$$$$$$$$$$
$ BLOCK ID=33 FOR THE BOMB FIN AT 135 DEGREES $
$ ONE Y-ZONE: FROM 4.48 TO 12.66 IN THE LOCAL COORDINATES OF ACOORD=3701 $
$ BOMB FIN AT 135 DEGREES (CAERO7=3701) $
$$$$$$$$$$$$$$$$$$$$$$$$$$$$$$$$$$$$$$$$$$$$$$$$$$$$$$$$$$$$$$$$$$$$$$$$$$$$$$$$
$...1..|...2...|...3...|...4...|...5...|...6...|...7...|...8...|...9...|...10..|
$
BLOCK	33	3701	120.	180.0	4.480	25.00	-12.0	12.0
	4.480	12.660	3701
MESHPRM	33	33	0.02	0.005	-1.05	1.1	1.15
$
$$$$$$$$$$$$$$$$$$$$$$$$$$$$$$$$$$$$$$$$$$$$$$$$$$$$$$$$$$$$$$$$$$$$$$$$$$$$$$$$
$ BLOCK ID=34 FOR THE BOMB FIN AT 225 DEGREES $
$ ONE Y-ZONE: FROM 4.48 TO 12.66 IN THE LOCAL COORDINATES OF ACOORD=3801 $
$ BOMB FIN AT 225 DEGREES (CAERO7=3801) $
$$$$$$$$$$$$$$$$$$$$$$$$$$$$$$$$$$$$$$$$$$$$$$$$$$$$$$$$$$$$$$$$$$$$$$$$$$$$$$$$
$
BLOCK	34	3801	120.	180.0	4.480	25.00	-12.0	12.0
	4.480	12.660	3801
MESHPRM	34	34	0.02	0.005	-1.05	1.1	1.15
$
$$$$$$$$$$$$$$$$$$$$$$$$$$$$$$$$$$$$$$$$$$$$$$$$$$$$$$$$$$$$$$$$$$$$$$$$$$$$$$$$
$ BLOCK ID=35 FOR THE BOMB FIN AT 315 DEGREES $
$ ONE Y-ZONE: FROM 4.48 TO 12.66 IN THE LOCAL COORDINATES OF ACOORD=3901 $
$ BOMB FIN AT 315 DEGREES (CAERO7=3901) $
$$$$$$$$$$$$$$$$$$$$$$$$$$$$$$$$$$$$$$$$$$$$$$$$$$$$$$$$$$$$$$$$$$$$$$$$$$$$$$$$
$...1..|...2...|...3...|...4...|...5...|...6...|...7...|...8...|...9...|...10..|
$
BLOCK	35	3901	120.	180.0	4.480	25.00	-12.0	12.0
	4.480	12.660	3901
MESHPRM	35	35	0.02	0.005	-1.05	1.1	1.15
$$$$$$$$$$$$$$$$$$$$$$$$$$$$$$$$$$$$$$$$$$$$$$$$$$$$$$$$$$$$$$$$$$$$$$$$$$$$$$$$
$ $
$ AERODYNAMIC SURFACE PANEL MODEL FOR MK84 BOMB AT STATION NO 7 $
$ $
$$$$$$$$$$$$$$$$$$$$$$$$$$$$$$$$$$$$$$$$$$$$$$$$$$$$$$$$$$$$$$$$$$$$$$$$$$$$$$$$
$...1..|...2...|...3...|...4...|...5...|...6...|...7...|...8...|...9...|...10..|
$ACOORD	7000	276.10	-120.0	-27.0	0.0	0.0	0.0
ACOORD	7000	276.10	-120.0	-27.0	0.0	0.0
BODY7	5003001	MK84_L	0	7000	1	3001
CAERO7	5003501	MK84PYLL7000	10	10	0	0		+CA71
+CA71	23.90	0.00	9.00	104.50	5003001				+CA72
+CA72	63.90	0.00	27.0	51.00
$
$ MK84 FINS
$
$ACOORD	5003601	277.420	-120.00	-27.00	0.00	45.00	0.00
$ACOORD	5003701	277.420	-120.00	-27.00	0.00	135.00	0.00
$ACOORD	5003801	277.420	-120.00	-27.00	0.00	225.00	0.00
$ACOORD	5003901	277.420	-120.00	-27.00	0.00	315.00	0.00
ACOORD	5003601	277.420	-120.00	-27.00	0.00	45.00
ACOORD	5003701	277.420	-120.00	-27.00	0.00	135.00
ACOORD	5003801	277.420	-120.00	-27.00	0.00	225.00
ACOORD	5003901	277.420	-120.00	-27.00	0.00	315.00
$
$ *** FIN #1 ***
$
CAERO7	5003601	MK84FIL15003601	7	11	0	0		+CA71
+CA71	132.700	4.480	0.000	17.620	5003001				+CA72
+CA72	140.870	12.660	0.000	9.450	0	0
$
$ *** FIN #2 ***
$
CAERO7	5003701	MK84FIL25003701	7	11	0	0		+CA71
+CA71	132.700	4.480	0.000	17.620	5003001				+CA72
+CA72	140.870	12.660	0.000	9.450	0	0
$
$ *** FIN #3 ***
$
CAERO7	5003801	MK84FIL35003801	7	11	0	0		+CA71
+CA71	132.700	4.480	0.000	17.620	5003001				+CA72
+CA72	140.870	12.660	0.000	9.450	0	0
$
$ *** FIN #4 ***
$
CAERO7	5003901	MK84FIL45003901	7	11	0	0		+CA71
+CA71	132.700	4.480	0.000	17.620	5003001				+CA72
+CA72	140.870	12.660	0.000	9.450	0	0
AEFACT	211	0.00	50.00	100.00
$...1..|...2...|...3...|...4...|...5...|...6...|...7...|...8...|...9...|...10..|
$
$$$$$$$$$$$$$$$$$$$$$$$$$$$$$$$$$$$$$$$$$$$$$$$$$$$$$$$$$$$$$$$$$$$$$$$$$$$$$$$$
$ $
$ * * * * FIVE BLOCKS OF MESH TO MODEL LHS MK84 BOMB AT STATION # 7 * * * $
$ BLOCK ID=71, 72, 73, 74, AND 75 $
$ $
$$$$$$$$$$$$$$$$$$$$$$$$$$$$$$$$$$$$$$$$$$$$$$$$$$$$$$$$$$$$$$$$$$$$$$$$$$$$$$$$
$ BLOCK ID=71 FOR THE MK84 BODY $
$ ONE Y-ZONE: FROM -9.0 TO 9.0 IN THE LOCAL COORDINATES OF ACOORD=7000 $
$ BOMB BODY (BODY7=3001) AND BOMB PYLON (CAERO7=3501) $
$$$$$$$$$$$$$$$$$$$$$$$$$$$$$$$$$$$$$$$$$$$$$$$$$$$$$$$$$$$$$$$$$$$$$$$$$$$$$$$$
BLOCK	71	7000	-100.	300.0	-30.00	30.00	-55.0	27.0
	-9.00	9.00	5003001	5003501
MESHPRM	71	71	0.01	0.01	1.15	1.15	1.15
$
BLOCK	72	5003601	120.	180.0	4.480	25.00	-12.0	12.0
	4.480	12.660	5003601
MESHPRM	72	72	0.02	0.005	-1.05	1.1	1.15
$
BLOCK	73	5003701	120.	180.0	4.480	25.00	-12.0	12.0
	4.480	12.660	5003701
MESHPRM	73	73	0.02	0.005	-1.05	1.1	1.15
$
BLOCK	74	5003801	120.	180.0	4.480	25.00	-12.0	12.0
	4.480	12.660	5003801
MESHPRM	74	74	0.02	0.005	-1.05	1.1	1.15
$
BLOCK	75	5003901	120.	180.0	4.480	25.00	-12.0	12.0
	4.480	12.660	5003901
MESHPRM	75	75	0.02	0.005	-1.05	1.1	1.15
$$$$$$$$$$$$$$$$$$$$$$$$$$$$$$$$$$$$$$$$$$$$$$$$$$$$$$$$$$$$$$$$$$$$$$$$$$$$$$$$
$ $
$ AERODYNAMIC SURFACE PANEL MODEL FOR 370 GALLON TANK AT STATION NO 4 $
$ $
$$$$$$$$$$$$$$$$$$$$$$$$$$$$$$$$$$$$$$$$$$$$$$$$$$$$$$$$$$$$$$$$$$$$$$$$$$$$$$$$
$...1..|...2...|...3...|...4...|...5...|...6...|...7...|...8...|...9...|...10..|
$	370	GALLON	TANK	BODY
$
$ACOORD	4000	185.78	71.0	-30.5	0.0	0.0	0.0
ACOORD	4000	185.78	71.0	-30.5	0.0	0.0

$BODY7	4001	TANK370R0	4000	1	2001	2.0
$BODY7      BID     LABEL PBODY7  ACOORD    NSEG IDMESH1
BODY7     4001  TANK370R0           4000       1    2001
SEGMESH	2001	15	9						+SEG11
+SEG11	1	0.00	0.0	0.0					+SEG12
+SEG12	1	24.22	0.0	8.0					+SEG13
+SEG13	1	35.47	0.0	9.31					+SEG14
+SEG14	1	46.72	0.0	10.63					+SEG15
+SEG15	1	57.97	0.0	11.94					+SEG16
+SEG16	1	69.22	0.0	13.25					+SEG17
+SEG17	1	85.05	0.0	13.25					+SEG18
+SEG18	1	100.89	0.0	13.25					+SEG19
+SEG19	1	116.72	0.0	13.25					+SEG20
+SEG20	1	132.55	0.0	13.25					+SEG21
+SEG21	1	148.39	0.0	13.25					+SEG22
+SEG22	1	164.22	0.0	13.25					+SEG23
+SEG23	1	180.89	0.0	12.17					+SEG24
+SEG24	1	197.55	0.0	11.08					+SEG25
+SEG25	1	214.22	0.0	10.00
$
$ 370 GALLON TANK PYLON
$
CAERO7	4501	TANKPYLR 4000	9	11	0	0		+CA71
+CA71	93.22	0.00	13.25	105.50	4001				+CA72
+CA72	118.72	0.00	30.50	80.00
$
$$$$$$$$$$$$$$$$$$$$$$$$$$$$$$$$$$$$$$$$$$$$$$$$$$$$$$$$$$$$$$$$$$$$$$$$$$$$$$$$
$ BLOCK ID=41 FOR RHS 370 GALLON TANK AT STATION # 4 $
$ ONE Y-ZONE: FROM -13.25 TO 13.25 IN THE LOCAL COORDINATES OF ACOORD=4000 $
$ TANK BODY (BODY7=4001) AND TANK PYLON (CAERO7=4501) $
$$$$$$$$$$$$$$$$$$$$$$$$$$$$$$$$$$$$$$$$$$$$$$$$$$$$$$$$$$$$$$$$$$$$$$$$$$$$$$$$
$...1..|...2...|...3...|...4...|...5...|...6...|...7...|...8...|...9...|...10..|
$
BLOCK	41	4000	-180.	350.0	-35.00	35.00	-60.0	30.5
	-13.25	13.25	4001	4501
MESHPRM	41	41	0.015	0.010	1.01	1.1	1.2
$$$$$$$$$$$$$$$$$$$$$$$$$$$$$$$$$$$$$$$$$$$$$$$$$$$$$$$$$$$$$$$$$$$$$$$$$$$$$$$$
$ $
$ AERODYNAMIC SURFACE PANEL MODEL FOR 370 GALLON TANK AT STATION NO 6 $
$ $
$$$$$$$$$$$$$$$$$$$$$$$$$$$$$$$$$$$$$$$$$$$$$$$$$$$$$$$$$$$$$$$$$$$$$$$$$$$$$$$$
$...1..|...2...|...3...|...4...|...5...|...6...|...7...|...8...|...9...|...10..|
$ACOORD	6000	185.78	-71.0	-30.5	0.0	0.0	0.0
ACOORD	6000	185.78	-71.0	-30.5	0.0	0.0
$BODY7	5004001	TANK370L 0	6000	1	2001	2.0
BODY7	5004001	TANK370L 0	6000	1	2001
$
CAERO7	5004501	TANKPYLL 6000	9	11	0	0		+CA71
+CA71	93.22	0.00	13.25	105.50	5004001				+CA72
+CA72	118.72	0.00	30.50	80.00
$
$$$$$$$$$$$$$$$$$$$$$$$$$$$$$$$$$$$$$$$$$$$$$$$$$$$$$$$$$$$$$$$$$$$$$$$$$$$$$$$$
$ BLOCK ID=41 FOR LHS 370 GALLON TANK AT STATION # 6 $
$ ONE Y-ZONE: FROM -13.25 TO 13.25 IN THE LOCAL COORDINATES OF ACOORD=6000 $
$ TANK BODY (BODY7=5004001) AND TANK PYLON (CAERO7=5004501) $
$$$$$$$$$$$$$$$$$$$$$$$$$$$$$$$$$$$$$$$$$$$$$$$$$$$$$$$$$$$$$$$$$$$$$$$$$$$$$$$$
BLOCK	61	6000	-180.	350.0	-35.00	35.00	-60.0	30.5
	-13.25	13.25	5004001	5004501
MESHPRM	61	61	0.015	0.010	1.01	1.1	1.2
$
$*****************************************************************************
$
$
$ SPLINE OF STRUCTURE TO AERO MODEL
$
$
$*****************************************************************************
$...1..|...2...|...3...|...4...|...5...|...6...|...7...|...8...|...9...|...10..|
$ FUSELAGE SPLINE (BEAM SPLINE)
$SPLINE2 EID	MODEL	SETK	SETG	DZ	EPS	CID	CURV
SPLINE2	10		10	10
SET1	10	163	153	154	155	156	42	71	+SET1
+SET1	286	410	281
PANLST3	10	FUSELAGE
$
$------------------------------
$ INBOARD STRAKE
$------------------------------
$...1..|...2...|...3...|...4...|...5...|...6...|...7...|...8...|...9...|...10..|
$SPLINE1 EID	MODEL	CP	SETK	SETG	DZ	EPS
SPLINE1	20			20	20
PANLST3	20	ISTRAK-R
SPLINE1	50020			50020	50020
PANLST3	50020	ISTRAK-L
$
$-------------------------------------------
$ OUTBOARD STRAKE
$-------------------------------------------
$...1..|...2...|...3...|...4...|...5...|...6...|...7...|...8...|...9...|...10..|
$SPLINE1 EID	MODEL	CP	SETK	SETG	DZ	EPS
SPLINE1	30			30	20
PANLST1	30	6501	6501	6606
SPLINE1	50030			50030	50020
PANLST1	50030	5006501	5006501	5006606
$
$-------------------------------------------
$ OUTBOARD STRAKE FLAPERON PORTION
$-------------------------------------------
$...1..|...2...|...3...|...4...|...5...|...6...|...7...|...8...|...9...|...10..|
$SPLINE1 EID	MODEL	CP	SETK	SETG	DZ	EPS
SPLINE1	35			35	110
PANLST1	35	6501	6523	6612
$SPLINE1 EID	MODEL	CP	SETK	SETG	DZ	EPS
SPLINE1	50035			50035	500110
PANLST1	50035	5006501	5006523	5006612
SET1	20	9	11	13	15	17	19	72	+SE1
+SE1	85	20	60	73	86	21	61	74	+SE2
+SE2	87	51	62	75	88	26	52	64	+SE3
+SE3	77	29	44	53	65	78	31	37	+SE4
+SE4	45	54	66	121	274	257
SET1	50020	-9	-11	-13	-15	-17	-19	-72	+SE1
+SE1	-85	-20	-60	-73	-86	-21	-61	-74	+SE2
+SE2	-87	-51	-62	-75	-88	-26	-52	-64	+SE3
+SE3	-77	-29	-44	-53	-65	-78	-31	-37	+SE4
+SE4	-45	-54	-66	-121	-274	-257
$
$ AIM9-P MISSILE (BEAM SPLINE)------------- STATION 1
$SPLINE2 EID	MODEL	SETK	SETG	DZ	EPS	CID	CURV
SPLINE2	70		70	50
SET1	50	3023	3025
PANLST3	70	AIM9-PR
$
$For	inboard	canard	and	fin
$	FORWARD	FIN	#1
ATTACH	80	80	3023
PANLST3	80	AIM9CR11
$
$	FORWARD	FIN	#2
ATTACH	90	90	3023
PANLST3	90	AIM9CR21
$
$	FORWARD	FIN	#3
ATTACH	100	100	3023
PANLST3	100	AIM9CR31
$
$	FORWARD	FIN	#4
ATTACH	110	110	3023
PANLST3	110	AIM9CR41
$
$	REAR	FIN	#1
ATTACH	120	120	3025
PANLST3	120	AIM9FR11
$
$	REAR	FIN	#2
ATTACH	130	130	3025
PANLST3	130	AIM9FR21
$
$	REAR	FIN	#3
ATTACH	140	140	3025
PANLST3	140	AIM9FR31
$
$	REAR	FIN	#4
ATTACH	150	150	3025
PANLST3	150	AIM9FR41
$For outboard canard and fin
$ FORWARD FIN #1
ATTACH	85	85	3023
PANLST3	85	AIM9CR12
$
$ FORWARD FIN #2
ATTACH	95	95	3023
PANLST3	95	AIM9CR22
$
$ FORWARD FIN #3
ATTACH	105	105	3023
PANLST3	105	AIM9CR32
$
$ FORWARD FIN #4
ATTACH	115	115	3023
PANLST3	115	AIM9CR42
$
$ REAR FIN #1
ATTACH	125	125	3025
PANLST3	125	AIM9FR12
$
$ REAR FIN #2
ATTACH	135	135	3025
PANLST3	135	AIM9FR22
$
$ REAR FIN #3
ATTACH	145	145	3025
PANLST3	145	AIM9FR32
$
$ REAR FIN #4
ATTACH	155	155	3025
PANLST3	155	AIM9FR42
$ AIM9-P MISSILE (BEAM SPLINE)------------- STATION 9
$...1..|...2...|...3...|...4...|...5...|...6...|...7...|...8...|...9...|...10..|
$SPLINE2 EID	MODEL	SETK	SETG	DZ	EPS	CID	CURV
SPLINE2	50070		50070	50050
SET1	50050	-3023	-3025
PANLST3	50070	AIM9-PL
$
$For inboard canard and fin
$ FORWARD FIN #1
ATTACH	50080	50080	-3023
PANLST3	50080	AIM9CL11
$
$ FORWARD FIN #2
ATTACH	50090	50090	-3023
PANLST3	50090	AIM9CL21
$
$ FORWARD FIN #3
ATTACH	500100	500100	-3023
PANLST3	500100	AIM9CL31
$
$ FORWARD FIN #4
ATTACH	500110	500110	-3023
PANLST3	500110	AIM9CL41
$
$ REAR FIN #1
ATTACH	500120	500120	-3025
PANLST3	500120	AIM9FL11
$
$ REAR FIN #2
ATTACH	500130	500130	-3025
PANLST3	500130	AIM9FL21
$
$ REAR FIN #3
ATTACH	500140	500140	-3025
PANLST3	500140	AIM9FL31
$
$ REAR FIN #4
ATTACH	500150	500150	-3025
PANLST3	500150	AIM9FL41
$For outboard canard and fin
$ FORWARD FIN #1
ATTACH	50085	50085	-3023
PANLST3	50085	AIM9CL12
$
$ FORWARD FIN #2
ATTACH	50095	50095	-3023
PANLST3	50095	AIM9CL22
$
$ FORWARD FIN #3
ATTACH	500105	500105	-3023
PANLST3	500105	AIM9CL32
$
$ FORWARD FIN #4
ATTACH	500115	500115	-3023
PANLST3	500115	AIM9CL42
$
$ REAR FIN #1
ATTACH	500125	500125	-3025
PANLST3	500125	AIM9FL12
$
$ REAR FIN #2
ATTACH	500135	500135	-3025
PANLST3	500135	AIM9FL22
$
$ REAR FIN #3
ATTACH	500145	500145	-3025
PANLST3	500145	AIM9FL32
$
$ REAR FIN #4
ATTACH	500155	500155	-3025
PANLST3	500155	AIM9FL42
$
$ 370 GAL TANK (BEAM SPLINE)
$...1..|...2...|...3...|...4...|...5...|...6...|...7...|...8...|...9...|...10..|
$SPLINE2 EID	MODEL	SETK	SETG	DZ	EPS	CID	CURV
SPLINE2	160		160	60
SET1	60	3210	3211	3213
PANLST3	160	TANK370R
$
$ 370 GAL TANK PYLON
$SPLINE1 EID	MODEL	CP	SETK	SETG	DZ	EPS
SPLINE1	170			170	70
SET1	70	3207	29	53
PANLST3	170	TANKPYLR
$---LEFT SIDE
$SPLINE2 EID	MODEL	SETK	SETG	DZ	EPS	CID	CURV
SPLINE2	500160		500160	50060
SET1	50060	-3210	-3211	-3213
PANLST3	500160	TANK370L
$SPLINE1 EID	MODEL	CP	SETK	SETG	DZ	EPS
SPLINE1	500170			500170	50070
SET1	50070	-3207	-29	-53
PANLST3	500170	TANKPYLL
$
$ MK-84 BOMB
$...1..|...2...|...3...|...4...|...5...|...6...|...7...|...8...|...9...|...10..|
$SPLINE2 EID	MODEL	SETK	SETG	DZ	EPS	CID	CURV
SPLINE2	180		180	80
SET1	80	3140	3141
PANLST3	180	MK84_R
$
$ MK-84 PYLON
$SPLINE1 EID	MODEL	CP	SETK	SETG	DZ	EPS
SPLINE1	190			190	90
SET1	90	3137	26	64
PANLST3	190	MK84PYLR
$---LEFT	SIDE
$SPLINE2 EID	MODEL	SETK	SETG	DZ	EPS	CID	CURV
SPLINE2	500180		500180	50080
SET1	50080	-3140	-3141
PANLST3	500180	MK84_L
$SPLINE1 EID	MODEL	CP	SETK	SETG	DZ	EPS
SPLINE1	500190			500190	50090
SET1	50090	-3137	-26	-64
PANLST3	500190	MK84PYLL
$
$ MK-84 BOMB FINS - FIN MOTION FOLLOWS THE BODY
$ USE ATTACH CARD ON MK84 GRID
$...1..|...2...|...3...|...4...|...5...|...6...|...7...|...8...|...9...|...10..|
ATTACH	10	192	3132
PANLST3	192	MK84FIR1
$
ATTACH	12	194	3132
PANLST3	194	MK84FIR2
$
ATTACH	14	196	3132
PANLST3	196	MK84FIR3
$
ATTACH	16	198	3132
PANLST3	198	MK84FIR4
$---LEFT	SIDE
ATTACH	50010	500192	-3132
PANLST3	500192	MK84FIL1
$
ATTACH	50012	500194	-3132
PANLST3	500194	MK84FIL2
$
ATTACH	50014	500196	-3132
PANLST3	500196	MK84FIL3
$
ATTACH	50016	500198	-3132
PANLST3	500198	MK84FIL4
$
$ MAIN WING - SAME SPLINE (I.E. GRIDS) AS STRAKES
$...1..|...2...|...3...|...4...|...5...|...6...|...7...|...8...|...9...|...10..|
$SPLINE1 EID	MODEL	CP	SETK	SETG	DZ	EPS
SPLINE1	200			200	20
PANLST1	200	7001	7007	7330	
$
$ WING OUTBOARD - SAME SPLINE (I.E. GRIDS) AS STRAKES
$SPLINE1 EID	MODEL	CP	SETK	SETG	DZ	EPS
SPLINE1	210			210	20
PANLST1	210	7001	7343	7560
$
$ L.E. FLAP
$SPLINE1 EID	MODEL	CP	SETK	SETG	DZ	EPS
SPLINE1	220			220	100
SET1	100	2	3	4	5	6	9	11	+SE1
+SE1	13	15	17
PANLST1	220	7001	7001	7538
$
$ FLAPERON
$SPLINE1 EID	MODEL	CP	SETK	SETG	DZ	EPS
SPLINE1	230			230	110
SET1	110	75	77	78	121	89	90	91	+SE1
+SE1	92	93	95	102	103	104	105	106	+SE2
+SE2	107	88	109	110	111	112	113
PANLST1	230	7001	7023	7336
$---LEFT SIDE
$SPLINE1 EID	MODEL	CP	SETK	SETG	DZ	EPS
SPLINE1	500200			500200	50020
PANLST1	500200	5007001	5007259	5007554
$
$ WING OUTBOARD - SAME SPLINE (I.E. GRIDS) AS STRAKES
$SPLINE1 EID	MODEL	CP	SETK	SETG	DZ	EPS
SPLINE1	500210			500210	50020
PANLST1	500210	5007001	5007007	5007252
$
$ L.E. FLAP
$SPLINE1 EID	MODEL	CP	SETK	SETG	DZ	EPS
SPLINE1	500220			500220	500100
SET1	500100	-2	-3	-4	-5	-6	-9	-11	+SE1
+SE1	-13	-15	-17
PANLST1	500220	5007001	5007001	5007538
$
$ FLAPERON
$SPLINE1 EID	MODEL	CP	SETK	SETG	DZ	EPS
SPLINE1	500230			500230	500110
SET1	500110	-75	-77	-78	-121	-89	-90	-91	+SE1
+SE1	-92	-93	-95	-102	-103	-104	-105	-106	+SE2
+SE2	-107	-88	-109	-110	-111	-112	-113
PANLST1	500230	5007001	5007275	5007560
$
$ HORIZONTAL TAIL
$SPLINE1 EID	MODEL	CP	SETK	SETG	DZ	EPS
SPLINE1	260			260	140
SET1	140	280	252	253	254	255	256	274	+SE1
+SE1	257	258	259	260	261	262	263	264	+SE2
+SE2	265	266
PANLST3	260	HTAIL_R
$SPLINE1 EID	MODEL	CP	SETK	SETG	DZ	EPS
SPLINE1	500260			500260	500140
SET1	500140	-280	-252	-253	-254	-255	-256	-274	+SE1
+SE1	-257	-258	-259	-260	-261	-262	-263	-264	+SE2
+SE2	-265	-266
PANLST3	500260	HTAIL_L
$ AIM9-P LAUNCHER (BEAM SPLINE)
$	LOCAL	COORDINATE	TO	SET	UP	THE	SPLINE	AXIS	$
CORD2R	70		318.68	183.6	0.0	318.68	183.6	1.0	+CRD1
+CRD1	318.68	160.0	0.0
$
$ AIM9P LAUNCHER: BEAM SPLINE
$
$SPLINE2 EID	MODEL	SETK	SETG	DZ	EPS	CID	CURV
SPLINE2	8001		8001	170			70
SET1	170	3017	THRU	3021
PANLST3	8001	AIM9RLAU
$	FOR	LEFT	SIDE
$...1..|...2...|...3...|...4...|...5...|...6...|...7...|...8...|...9...|...10..|
CORD2R	50070		318.68	-183.6	0.0	318.68	-183.6	1.0	+CRD1
+CRD1	318.68	-160.0	0.0
$
$	AIM9P	LAUNCHER:	BEAM	SPLINE
$
$SPLINE2 EID	MODEL	SETK	SETG	DZ	EPS	CID	CURV
SPLINE2	5008001		5008001	500170			50070
SET1	500170	-3021	THRU	-30174
PANLST3	5008001	AIM9LLAU
$
$	ADAPTER	LAU-129
$
$SPLINE1 EID	MODEL	CP	SETK	SETG	DZ	EPS
SPLINE1	270			270	150
SET1	150	21	61	74	3080	3082	3085
PANLST3	270	RLAUAD
$
$ LAU-129 LAUNCHER
$
$SPLINE1 EID	MODEL	CP	SETK	SETG	DZ	EPS
SPLINE1	280			280	160
SET1	160	3080	3082	3085	3089
PANLST3	280	RLAULU
$$---LEFT	SIDE
$SPLINE1 EID	MODEL	CP	SETK	SETG	DZ	EPS
SPLINE1	500270			500270	500150
SET1	500150	-21	-61	-74	-3080	-3082	-3085
PANLST3	500270	LLAUAD
$
$ LAU-129 LAUNCHER
$
$SPLINE1 EID	MODEL	CP	SETK	SETG	DZ	EPS
SPLINE1	500280			500280	500160
SET1	500160	-3080	-3082	-3085	-3089
PANLST3	500280	LLAULU
$
$...1..|...2...|...3...|...4...|...5...|...6...|...7...|...8...|...9...|...10..|
$PLTMODE	21	ASYM	1	0.4	tecplot	MODE01.plt
$PLTMODE	22	ASYM	2	0.4	tecplot	MODE02.plt
$PLTMODE	23	ASYM	3	0.4	tecplot	MODE03.plt
$PLTMODE	24	ASYM	4	0.4	tecplot	MODE04.plt
$PLTMODE	25	ASYM	5	0.4	tecplot	MODE05.plt
$PLTMODE	26	ASYM	6	0.4	tecplot	MODE06.plt
PLTMODE	27	ASYM	7	0.4	tecplot	MODE07.plt
$PLTMODE	28	ASYM	8	0.4	tecplot	MODE08.plt
$PLTMODE	29	ASYM	9	0.4	tecplot	MODE09.plt
$PLTMODE	30	ASYM	10	0.4	tecplot	MODE10.plt
$PLTMODE	31	ASYM	11	0.4	tecplot	MODE11.plt
$PLTMODE	32	ASYM	12	0.4	tecplot	MODE12.plt
$PLTMODE	33	ASYM	13	0.4	tecplot	MODE13.plt
$PLTMODE	34	ASYM	14	0.4	tecplot	MODE14.plt	