ID MSC, CC451 $
SOL 153
TIME 30
CEND
ANALYSIS = HEAT
NLPARM = 100
SPC=100
TEMP(INIT)=10
TITLE = CONE VIEW MODULE TEST                                  CC451
THERMAL=ALL
FLUX=ALL
ECHO=BOTH
LOAD=20
BEGIN BULK
NLPARM, 100
CHBDYG  1               AREA3   10              101
        1       2       5
CHBDYG  2               AREA4   10              101
        2       3       6       5
CHBDYG  3               AREA4   10              101
        3       4       7       6
CHBDYG  4               AREA3   10              101
        1       5       8
CHBDYG  5               AREA4   10              101
        5       6       9       8
CHBDYG  6               AREA4   10              101
        6       7       10      9
CHBDYG  7               AREA3   10              101
        1       8       11
CHBDYG  8               AREA4   10              101
        8       9       12      11
CHBDYG  9               AREA4   10              101
        9       10      13      12
CHBDYG  10              AREA3   10              101
        1       11      18
CHBDYG  11              AREA4   10              101
        11      12      19      18
CHBDYG  12              AREA4   10              101
        12      13      20      19
CHBDYG  13              AREA3   10              101
        1       18      21
CHBDYG  14              AREA4   10              101
        18      19      22      21
CHBDYG  15              AREA4   10              101
        19      20      23      22
CHBDYG  16              AREA3   10              101
        1       21      24
CHBDYG  17              AREA4   10              101
        21      22      25      24
CHBDYG  18              AREA4   10              101
        22      23      26      25
CHBDYG  19              AREA3   10              101
        1       24      31
CHBDYG  20              AREA4   10              101
        24      25      32      31
$ ... 176 like lines cut
RADM    101             0.6
RADM    201             0.8
RADM    301             1.0
CQUAD4  2       1       2       3       6       5
CQUAD4  3       1       3       4       7       6
CQUAD4  5       1       5       6       9       8
CQUAD4  6       1       6       7       10      9
CQUAD4  8       1       8       9       12      11
CQUAD4  9       1       9       10      13      12
CQUAD4  11      1       11      12      19      18
CQUAD4  12      1       12      13      20      19
CQUAD4  14      1       18      19      22      21
CQUAD4  15      1       19      20      23      22
CQUAD4  17      1       21      22      25      24
CQUAD4  18      1       22      23      26      25
CQUAD4  20      1       24      25      32      31
CQUAD4  21      1       25      26      33      32
CQUAD4  23      1       31      32      35      34
CQUAD4  24      1       32      33      36      35
CQUAD4  26      1       34      35      38      37
CQUAD4  27      1       35      36      39      38
CQUAD4  29      1       37      38      45      44
CQUAD4  30      1       38      39      46      45
$ ... 64 like lines cut
CTRIA3  1       1       1       2       5
CTRIA3  4       1       1       5       8
CTRIA3  7       1       1       8       11
CTRIA3  10      1       1       11      18
CTRIA3  13      1       1       18      21
CTRIA3  16      1       1       21      24
CTRIA3  19      1       1       24      31
CTRIA3  22      1       1       31      34
CTRIA3  25      1       1       34      37
CTRIA3  28      1       1       37      44
CTRIA3  31      1       1       44      47
CTRIA3  34      1       1       47      2
CTRIA3  37      1       53      57      54
CTRIA3  40      1       53      60      57
CTRIA3  43      1       53      63      60
CTRIA3  46      1       53      70      63
CTRIA3  49      1       53      73      70
CTRIA3  52      1       53      76      73
CTRIA3  55      1       53      83      76
CTRIA3  58      1       53      86      83
$ ... 4 like lines cut
GRID    1               0.0     0.0     0.0
GRID    2               .025    0.0     0.0
GRID    3               .05     0.0     0.0
GRID    4               .075    0.0     0.0
GRID    5               .021807 .012226 0.0
GRID    6               .043613 .024452 0.0
GRID    7               .06542  .036678 0.0
GRID    8               .012226 .021807 0.0
GRID    9               .024452 .043613 0.0
GRID    10              .036678 .06542  0.0
GRID    11              -0.0    .025    0.0
GRID    12              -0.0    .05     0.0
GRID    13              -0.0    .075    0.0
GRID    18              -.012226.021807 0.0
GRID    19              -.024452.043613 0.0
GRID    20              -.036678.06542  0.0
GRID    21              -.021807.012226 0.0
GRID    22              -.043613.024452 0.0
GRID    23              -.06542 .036678 0.0
GRID    24              -.025   -0.0    0.0
$ ... 78 like lines cut
MAT4    100     100.0
PARAM   AUTOSPC YES
PARAM   MAXIT   20
PARAM   MESH    YES
PARAM   SIGMA   5.67E-8
PARAM   TABS    0.0
PSHELL  1       100     0.001
QBDY1   20      3000.0  1       THRU    36
SPC     100     53      1       550.0
SPC     100     54      1       550.0
SPC     100     55      1       550.0
SPC     100     56      1       550.0
SPC     100     57      1       550.0
SPC     100     58      1       550.0
SPC     100     59      1       550.0
SPC     100     60      1       550.0
SPC     100     61      1       550.0
SPC     100     62      1       550.0
SPC     100     63      1       550.0
SPC     100     64      1       550.0
SPC     100     65      1       550.0
SPC     100     70      1       550.0
SPC     100     71      1       550.0
SPC     100     72      1       550.0
SPC     100     73      1       550.0
SPC     100     74      1       550.0
SPC     100     75      1       550.0
SPC     100     76      1       550.0
$ ... 17 like lines cut
TEMP    10      53      550.0
TEMP    10      54      550.0
TEMP    10      55      550.0
TEMP    10      56      550.0
TEMP    10      57      550.0
TEMP    10      58      550.0
TEMP    10      59      550.0
TEMP    10      60      550.0
TEMP    10      61      550.0
TEMP    10      62      550.0
TEMP    10      63      550.0
TEMP    10      64      550.0
TEMP    10      65      550.0
TEMP    10      70      550.0
TEMP    10      71      550.0
TEMP    10      72      550.0
TEMP    10      73      550.0
TEMP    10      74      550.0
TEMP    10      75      550.0
TEMP    10      76      550.0
$ ... 17 like lines cut
TEMPD   10      1000.0
VIEW    10      1       NONE    4       4
RADCAV  1               NO                      FD      0.1
RADSET  1
VIEW3D  1       4       4       4       0.1     1.0E-10         23
PARAM,POST,-1
ENDDATA
