NASTRAN SPARSE=0
ID MSC, DOFM $ E_JOHNSON 21-AUG-92 V68
TIME 999
SOL 200                   $ DIRECT FREQUENCY RESPONSE ANALYSIS
CEND
TITLE=DYNAMIC OPTIMIZATION    DIRECT FREQUENCY RESPONSE        DOFM
SPC          = 100
LOADSET      = 720
DLOAD        = 700
DESOBJ = 202
SUBCASE 1
DESSUB = 1
   METHOD = 10
   ANALYSIS =  MODES
SUBCASE 2
DESSUB = 2
   SET 10 = 1110
   DISPL(PHASE,SORT1) = 10       $ MAGNITUDE/PHASE REPRESENTATION FOR RESPONSE
   ANALYSIS = DFREQ $
   FREQ         = 740
BEGIN BULK
ASET1   13      1101    THRU    1110
ASET1   123     201     THRU    210
ASET1   123     301     THRU    310
ASET1   123     401     THRU    410
ASET1   123     501     THRU    510
ASET1   123     601     THRU    610
ASET1   123     701     THRU    710
ASET1   123     801     THRU    810
ASET1   123     901     THRU    910
ASET1   123     1001    THRU    1010
CQUAD4  101     1       100     101     201     200
CQUAD4  102     1       101     102     202     201
CQUAD4  103     1       102     103     203     202
CQUAD4  104     1       103     104     204     203
CQUAD4  105     1       104     105     205     204
CQUAD4  106     1       105     106     206     205
CQUAD4  107     1       106     107     207     206
CQUAD4  108     1       107     108     208     207
CQUAD4  109     1       108     109     209     208
CQUAD4  110     1       109     110     210     209
CQUAD4  201     1       200     201     301     300
CQUAD4  202     2       201     202     302     301
CQUAD4  203     2       202     203     303     302
CQUAD4  204     2       203     204     304     303
CQUAD4  205     2       204     205     305     304
CQUAD4  206     2       205     206     306     305
CQUAD4  207     2       206     207     307     306
CQUAD4  208     2       207     208     308     307
CQUAD4  209     2       208     209     309     308
CQUAD4  210     2       209     210     310     309
$ ... 80 like lines cut
DCONSTR 1       201     10.0    9.50+6
DCONSTR 1       301     10.0+6  1.0+20
DCONSTR 2       2001    0.0     2.5
DESVAR *1               T1              3.29118085E+00  1.00000001E-01  +D    1V
*D    1V1.00000000E+01
DESVAR *2               T2              2.85623360E+00  1.00000001E-01  +D    2V
*D    2V1.00000000E+01
DESVAR *3               T3              1.87498641E+00  1.00000001E-01  +D    3V
*D    3V1.00000000E+01
DESVAR *4               T4              1.50245774E+00  1.00000001E-01  +D    4V
*D    4V1.00000000E+01
DESVAR *5               T5              2.27403331E+00  1.00000001E-01  +D    5V
*D    5V1.00000000E+01
DESVAR *6               T6              2.45277858E+00  1.00000001E-01  +D    6V
*D    6V1.00000000E+01
DESVAR *7               T7              2.37108827E+00  1.00000001E-01  +D    7V
*D    7V1.00000000E+01
DESVAR *8               T8              2.15080380E+00  1.00000001E-01  +D    8V
*D    8V1.00000000E+01
DESVAR *9               T9              5.25042832E-01  1.00000001E-01  +D    9V
*D    9V1.00000000E+01
DESVAR *10              T10             1.25000000E-01  1.00000001E-01  +D   10V
*D   10V1.00000000E+01
DOPTPRM DESMAX  20      DELP    0.1
DRESP1  201     MODE1   EIGN                    1
DRESP1  202     WEIGHT  WEIGHT
DRESP1  301     MODE2   EIGN                    2
DRESP1  2001    UZ1110  FRDISP                  3               1110
DSCREEN FRDISP  -10.
DVPREL1 101     PSHELL  1       4       .01
        1       0.08
DVPREL1 102     PSHELL  2       4       .01
        2       0.08
DVPREL1 103     PSHELL  3       4       .01
        3       0.08
DVPREL1 104     PSHELL  4       4       .01
        4       0.08
DVPREL1 105     PSHELL  5       4       .01
        5       0.08
DVPREL1 106     PSHELL  6       4       .01
        6       0.08
DVPREL1 107     PSHELL  7       4       .01
        7       0.08
DVPREL1 108     PSHELL  8       4       .01
        8       0.08
DVPREL1 109     PSHELL  9       4       .01
        9       0.08
DVPREL1 110     PSHELL  10      4       .01
        10      0.08
EIGRL   10                      10
FREQ    740     500.
GRDSET                                                  6
GRID    100             0.      0.      0.
GRID    101             1.0     0.      0.
GRID    102             2.      0.      0.
GRID    103             3.      0.      0.
GRID    104             4.      0.      0.
GRID    105             5.      0.      0.
GRID    106             6.      0.      0.
GRID    107             7.      0.      0.
GRID    108             8.      0.      0.
GRID    109             9.      0.      0.
GRID    110             10.     0.      0.
GRID    200             0.      1.0     0.
GRID    201             1.0     1.0     0.
GRID    202             2.      1.0     0.
GRID    203             3.      1.0     0.
GRID    204             4.      1.0     0.
GRID    205             5.      1.0     0.
GRID    206             6.      1.0     0.
GRID    207             7.      1.0     0.
GRID    208             8.      1.0     0.
$ ... 101 like lines cut
$
$            sid     exciteID loadID tableID
$            sid     nid     PLOAD2?
LSEQ    720     710     730
MAT1    150     1.0E7           0.3     .1
PARAM   NASPRT  1
PARAM   WTMASS  0.002591
PLOAD2  730     100.0   201     THRU    210
PLOAD2  730     100.0   301     THRU    310
PLOAD2  730     100.0   401     THRU    410
PLOAD2  730     100.0   501     THRU    510
PLOAD2  730     100.0   101     THRU    110
PLOAD2  730     100.0   701     THRU    710
PLOAD2  730     100.0   801     THRU    810
PLOAD2  730     100.0   901     THRU    910
PLOAD2  730     100.0   1001    THRU    1010
PLOAD2  730     100.0   601     THRU    610
PSHELL  1       150     .08     150
PSHELL  2       150     .08     150
PSHELL  3       150     .08     150
PSHELL  4       150     .08     150
PSHELL  5       150     .08     150
PSHELL  6       150     .08     150
PSHELL  7       150     .08     150
PSHELL  8       150     .08     150
PSHELL  9       150     .08     150
PSHELL  10      150     .08     150
RLOAD1  700     710                     800
SPC1    100     246     1101    1102    1103    1104    1105    1106
        1107    1108    1109    1110
SPC1    100     123456  100     101     102     103     104     105
        106     107     108     109     110     200     300     400
        500     600     700     800     900     1000    1100
TABLED1 800
        0.0     1.0     1.0E3   1.0     ENDT
PARAM,POST,-1
ENDDATA
