ID MSC, DSNLELI $ HDL V69 9-APR-1996
DIAG 8
TIME 30 $ CPU TIME IN MINUTES
SOL 106
CEND
TITLE = NONLINEAR ELEMENT CODE CHECK PROBLEM                             DSNLELI
SUBTITLE = MSC/68 VERSION
LABEL = CHECK OUTPUT FORMATS FOR HYPERELASTIC ELEMENTS
ECHO=UNSORT
SET 1 = 8700 THRU 9400 EXCEPT,
                       8800, 8801, 8810, 8811, 8820, 8821, 8830, 8831,
                       9000, 9010, 9020, 9030,
                       9100, 9101, 9110, 9111, 9120, 9121, 9130, 9131,
                       9300, 9310, 9320, 9330
 SPC = 1
 DISP=ALL
 OLOAD = ALL
 ESE=ALL
SUBCASE 1
SUBTITLE = ELASTIC LOADING BY MOMENT
 LOAD = 1
 ELFORCE=1
 STRESS =1
 NLPARM = 1
SUBCASE 2
SUBTITLE = ELASTIC LOADING BY FORCE
 LOAD = 2
 ELFORCE=1
 STRESS =ALL
 NLPARM = 2
SUBCASE 3
SUBTITLE = PLASTIC (NONLINEAR ELASTIC) LOADING BY FORCE
 LOAD = 3
 ELFORCE=ALL
 STRESS =ALL
 NLPARM = 3
BEGIN BULK
PARAM,  EST, +1 $ CALCULATE AND PRINT ELEMENT MEASURES
PARAM,  GPECT, +1 $ GRID-ELEMENT CONNECTIVITY
PARAM,  DBDROPT,0 $ TURN OFF DIRECTORY PRINT
MAT1    1       30.+6           0.0
MATS1   1               PLASTIC 0.0     1       1       30.+3
MAT1    2       30.+6           0.0
MATS1   2               PLASTIC 10.+6   1       1       30.+3
MAT1    3       30.+6           0.0
MATS1   3       30      PLASTIC         1       1       30.+3
TABLES1 30                                                              +TB31
+TB31   0.0     0.0     0.001   30.+3   0.003   45.+3   ENDT
MAT1    4       30.+6           0.0
MATS1   4       40      NLELAST
TABLES1 40                                                              +TB41
+TB41   -0.003  -45.+3  -0.001  -30.+3  0.0     0.0     0.001   30.+3   +TB42
+TB42   0.003   45.+3   ENDT
MAT1    5       30.+6           0.0
MATS1   5       50      NLELAST
TABLES1 50                                                              +TB51
+TB51   -0.002  -150.+3 -0.001  -30.+3  0.0     0.0     0.001   30.+3   +TB52
+TB52   0.002   150.+3  ENDT
MAT1    6       30.+6           0.0
MATS1   6       60      NLELAST
TABLES1 60                                                              +TB61
+TB61   0.0     0.0     0.001   30.+3   0.003   45.+3   ENDT
MAT1    7       30.+6           0.0
MATS1   7       70      NLELAST
TABLES1 70                                                              +TB71
+TB71   0.0     0.0     0.001   30.+3   0.002   150.+3  ENDT
MATHP   8       5.034+6         250.+6
NLPARM  1       1               AUTO                    P       YES     +NL1
NLPARM  2       2               AUTO                    P       NO      +NL2
NLPARM  3       2               AUTO                    P       NO      +NL2
CROD    8900    8901    8901    8902
PROD    8901    2       0.1     1.5915-3 0.17841
GRID    8901    0       0.0     0.0     0.0
GRID    8902    0       1.0     0.0     0.0
SPC1    1       123456  8901
SPC1    1       2356    8902
MOMENT1 1       8902    350.0   8901    8902
MOMENT1 2       8902    350.0   8901    8902
FORCE1  2       8902    1500.0  8901    8902
FORCE1  3       8902    4500.0  8901    8902
CROD    8910    8902    8911    8912
PROD    8902    3       0.1     1.5915-3 0.17841
GRID    8911    0       0.0     0.0     0.0             123456
GRID    8912    0       1.0     0.0     0.0             2356
MOMENT1 1       8912    350.0   8911    8912
MOMENT1 2       8912    350.0   8911    8912
FORCE1  2       8912    1500.0  8911    8912
FORCE1  3       8912    4500.0  8911    8912
CROD    8920    8903    8921    8922
PROD    8903    4       0.1     1.5915-3 0.17841
GRID    8921    0       0.0     0.0     0.0
GRID    8922    0       1.0     0.0     0.0
SPC1    1       123456  8921
SPC1    1       2356    8922
MOMENT1 1       8922    350.0   8921    8922
MOMENT1 2       8922    350.0   8921    8922
FORCE1  2       8922    1500.0  8921    8922
FORCE1  3       8922    4500.0  8921    8922
CROD    8930    8904    8931    8932
PROD    8904    5       0.1     1.5915-3 0.17841
GRID    8931    0       0.0     0.0     0.0             123456
GRID    8932    0       1.0     0.0     0.0             2356
MOMENT1 1       8932    350.0   8931    8932
MOMENT1 2       8932    350.0   8931    8932
FORCE1  2       8932    1500.0  8931    8932
FORCE1  3       8932    12000.0 8931    8932
CONROD  9200    9201    9202    2       0.1     1.5915-3 0.17841
GRID    9201    0       0.0     0.0     0.0
GRID    9202    0       1.0     0.0     0.0
SPC1    1       123456  9201
SPC1    1       2356    9202
MOMENT1 1       9202    350.0   9201    9202
MOMENT1 2       9202    350.0   9201    9202
FORCE1  2       9202    1500.0  9201    9202
FORCE1  3       9202    4500.0  9201    9202
CONROD  9210    9211    9212    3       0.1     1.5915-3 0.17841
GRID    9211    0       0.0     0.0     0.0             123456
GRID    9212    0       1.0     0.0     0.0             2356
MOMENT1 1       9212    350.0   9211    9212
MOMENT1 2       9212    350.0   9211    9212
FORCE1  2       9212    1500.0  9211    9212
FORCE1  3       9212    4500.0  9211    9212
CONROD  9220    9221    9222    4       0.1     1.5915-3 0.17841
GRID    9221    0       0.0     0.0     0.0
GRID    9222    0       1.0     0.0     0.0
SPC1    1       123456  9221
SPC1    1       2356    9222
MOMENT1 1       9222    350.0   9221    9222
MOMENT1 2       9222    350.0   9221    9222
FORCE1  2       9222    1500.0  9221    9222
FORCE1  3       9222    4500.0  9221    9222
CONROD  9230    9231    9232    5       0.1     1.5915-3 0.17841
GRID    9231    0       0.0     0.0     0.0             123456
GRID    9232    0       1.0     0.0     0.0             2356
MOMENT1 1       9232    350.0   9231    9232
MOMENT1 2       9232    350.0   9231    9232
FORCE1  2       9232    1500.0  9231    9232
FORCE1  3       9232    12000.0 9231    9232
CTUBE   8700    8701    8701    8702
PTUBE   8701    2       0.35682 0.17841
GRID    8701    0       0.0     0.0     0.0
GRID    8702    0       1.0     0.0     0.0
SPC1    1       123456  8701
SPC1    1       2356    8702
MOMENT1 1       8702    350.0   8701    8702
MOMENT1 2       8702    350.0   8701    8702
FORCE1  2       8702    1500.0  8701    8702
FORCE1  3       8702    4500.0   8701    8702
CTUBE   8710    8702    8711    8712
PTUBE   8702    3       0.35682 0.17841
GRID    8711    0       0.0     0.0     0.0             123456
GRID    8712    0       1.0     0.0     0.0             2356
MOMENT1 1       8712    350.0   8711    8712
MOMENT1 2       8712    350.0   8711    8712
FORCE1  2       8712    1500.0  8711    8712
FORCE1  3       8712    4500.0  8711    8712
CTUBE   8720    8703    8721    8722
PTUBE   8703    4       0.35682 0.17841
GRID    8721    0       0.0     0.0     0.0
GRID    8722    0       1.0     0.0     0.0
SPC1    1       123456  8721
SPC1    1       2356    8722
MOMENT1 1       8722    350.0   8721    8722
MOMENT1 2       8722    350.0   8721    8722
FORCE1  2       8722    1500.0  8721    8722
FORCE1  3       8722    4500.0  8721    8722
CTUBE   8730    8704    8731    8732
PTUBE   8704    5       0.35682 0.17841
GRID    8731    0       0.0     0.0     0.0             123456
GRID    8732    0       1.0     0.0     0.0             2356
MOMENT1 1       8732    350.0   8731    8732
MOMENT1 2       8732    350.0   8731    8732
FORCE1  2       8732    1500.0  8731    8732
FORCE1  3       8732    12000.0 8731    8732
CBEAM   9400    9401    9401    9402    0.      0.      1.
GRID    9401    0       0.0     0.0     0.0
GRID    9402    0       1.0     0.0     0.0
SPC1    1       123456  9401
MOMENT1 1       9402    350.0   9401    9402
MOMENT1 2       9402    350.0   9401    9402
FORCE   2       9402    0       100.0   0.0     1.0     0.0
FORCE   3       9402    0       150.0   0.0     1.0     0.0
PBEAM   9401    1       0.1     7.9575-47.9575-4        1.5915-3        +PB1
+PB1    0.17841 0.0     0.0     0.17841 -.17841 0.0     0.0     -.17841 +PB2
+PB2    YESA    1.0
CQUAD4  9000    9001    9001    9002    9003    9004    0.
PSHELL  9001    2       0.1     2
GRID    9001    0       0.0     0.0     0.0
GRID    9002    0       1.0     0.0     0.0
GRID    9003    0       1.0     1.0     0.0
GRID    9004    0       0.0     1.0     0.0
SPC1    1       23456   9001    9002
SPC1    1       13456   9001    9004
SPC1    1       3456    9003
FORCE1  2       9002    750.0   9001    9002
FORCE1  2       9003    750.0   9004    9003
FORCE1  3       9002    2250.0  9001    9002
FORCE1  3       9003    2250.0  9004    9003
CQUAD4  9010    9011    9011    9012    9013    9014    0.
PSHELL  9011    3       0.1     3
GRID    9011    0       0.0     0.0     0.0             123456
GRID    9012    0       1.0     0.0     0.0             23456
GRID    9013    0       1.0     1.0     0.0             3456
GRID    9014    0       0.0     1.0     0.0             13456
FORCE1  2       9012    750.0   9011    9012
FORCE1  2       9013    750.0   9014    9013
FORCE1  3       9012    2250.0  9011    9012
FORCE1  3       9013    2250.0  9014    9013
CQUAD4  9020    9021    9021    9022    9023    9024    0.
PSHELL  9021    6       0.1     6
GRID    9021    0       0.0     0.0     0.0
GRID    9022    0       1.0     0.0     0.0
GRID    9023    0       1.0     1.0     0.0
GRID    9024    0       0.0     1.0     0.0
SPC1    1       23456   9021    9022
SPC1    1       13456   9021    9024
SPC1    1       3456    9023
FORCE1  2       9022    750.0   9021    9022
FORCE1  2       9023    750.0   9024    9023
FORCE1  3       9022    2250.0  9021    9022
FORCE1  3       9023    2250.0  9024    9023
CQUAD4  9030    9031    9031    9032    9033    9034    0.
PSHELL  9031    7       0.1     7
GRID    9031    0       0.0     0.0     0.0             123456
GRID    9032    0       1.0     0.0     0.0             23456
GRID    9033    0       1.0     1.0     0.0             3456
GRID    9034    0       0.0     1.0     0.0             13456
FORCE1  2       9032    750.0   9031    9032
FORCE1  2       9033    750.0   9034    9033
FORCE1  3       9032    3000.0  9031    9032
FORCE1  3       9033    3000.0  9034    9033
CTRIA3  8800    8801    8801    8802    8803    0.
CTRIA3  8801    8801    8801    8803    8804    0.
PSHELL  8801    2       0.1     2
GRID    8801    0       0.0     0.0     0.0
GRID    8802    0       1.0     0.0     0.0
GRID    8803    0       1.0     1.0     0.0
GRID    8804    0       0.0     1.0     0.0
SPC1    1       23456   8801    8802
SPC1    1       13456   8801    8804
SPC1    1       3456    8803
FORCE1  2       8802    750.0   8801    8802
FORCE1  2       8803    750.0   8804    8803
FORCE1  3       8802    2250.0  8801    8802
FORCE1  3       8803    2250.0  8804    8803
CTRIA3  8810    8811    8811    8812    8813    0.
CTRIA3  8811    8811    8811    8813    8814    0.
PSHELL  8811    3       0.1     3
GRID    8811    0       0.0     0.0     0.0             123456
GRID    8812    0       1.0     0.0     0.0             23456
GRID    8813    0       1.0     1.0     0.0             3456
GRID    8814    0       0.0     1.0     0.0             13456
FORCE1  2       8812    750.0   8811    8812
FORCE1  2       8813    750.0   8814    8813
FORCE1  3       8812    2250.0  8811    8812
FORCE1  3       8813    2250.0  8814    8813
CTRIA3  8820    8821    8821    8822    8823    0.
CTRIA3  8821    8821    8821    8823    8824    0.
PSHELL  8821    6       0.1     6
GRID    8821    0       0.0     0.0     0.0
GRID    8822    0       1.0     0.0     0.0
GRID    8823    0       1.0     1.0     0.0
GRID    8824    0       0.0     1.0     0.0
SPC1    1       23456   8821    8822
SPC1    1       13456   8821    8824
SPC1    1       3456    8823
FORCE1  2       8822    750.0   8821    8822
FORCE1  2       8823    750.0   8824    8823
FORCE1  3       8822    2250.0  8821    8822
FORCE1  3       8823    2250.0  8824    8823
CTRIA3  8830    8831    8831    8832    8833    0.
CTRIA3  8831    8831    8831    8833    8834    0.
PSHELL  8831    7       0.1     7
GRID    8831    0       0.0     0.0     0.0             123456
GRID    8832    0       1.0     0.0     0.0             23456
GRID    8833    0       1.0     1.0     0.0             3456
GRID    8834    0       0.0     1.0     0.0             13456
FORCE1  2       8832    750.0   8831    8832
FORCE1  2       8833    750.0   8834    8833
FORCE1  3       8832    3000.0  8831    8832
FORCE1  3       8833    3000.0  8834    8833
CHEXA   9300    9301    9301    9302    9303    9304    9305    9306    +C9301
+C9301  9307    9308
PSOLID  9301    2       0
GRID    9301    0       0.0     0.0     0.0     0       456
GRID    9302    0       1.0     0.0     0.0     0       456
GRID    9303    0       1.0     1.0     0.0     0       456
GRID    9304    0       0.0     1.0     0.0     0       456
GRID    9305    0       0.0     0.0     1.0     0       456
GRID    9306    0       1.0     0.0     1.0     0       456
GRID    9307    0       1.0     1.0     1.0     0       456
GRID    9308    0       0.0     1.0     1.0     0       456
SPC1    1       1       9301    9304    9305    9308
SPC1    1       2       9305
SPC1    1       23      9301
PLOAD4  2       9300    -15000.                         9302    9307
PLOAD4  3       9300    -45000.                         9302    9307
CHEXA   9310    9311    9311    9312    9313    9314    9315    9316    +C9311
+C9311  9317    9318
PSOLID  9311    3       0
GRID    9311    0       0.0     0.0     0.0     0
GRID    9312    0       1.0     0.0     0.0     0
GRID    9313    0       1.0     1.0     0.0     0
GRID    9314    0       0.0     1.0     0.0     0
GRID    9315    0       0.0     0.0     1.0     0
GRID    9316    0       1.0     0.0     1.0     0
GRID    9317    0       1.0     1.0     1.0     0
GRID    9318    0       0.0     1.0     1.0     0
SPC1    1       1       9311    9314    9315    9318
SPC1    1       2       9315
SPC1    1       23      9311
SPC1    1       456     9311    THRU    9318
PLOAD4  2       9310    -15000.                         9312    9317
PLOAD4  3       9310    -45000.                         9312    9317
CHEXA   9320    9321    9321    9322    9323    9324    9325    9326    +C9321
+C9321  9327    9328
PSOLID  9321    6       0
GRID    9321    0       0.0     0.0     0.0     0       456
GRID    9322    0       1.0     0.0     0.0     0       456
GRID    9323    0       1.0     1.0     0.0     0       456
GRID    9324    0       0.0     1.0     0.0     0       456
GRID    9325    0       0.0     0.0     1.0     0       456
GRID    9326    0       1.0     0.0     1.0     0       456
GRID    9327    0       1.0     1.0     1.0     0       456
GRID    9328    0       0.0     1.0     1.0     0       456
SPC1    1       1       9321    9324    9325    9328
SPC1    1       2       9325
SPC1    1       23      9321
PLOAD4  2       9320    -15000.                         9322    9327
PLOAD4  3       9320    -45000.                         9322    9327
CHEXA   9330    9331    9331    9332    9333    9334    9335    9336    +C9331
+C9331  9337    9338
PSOLID  9331    7       0
GRID    9331    0       0.0     0.0     0.0     0
GRID    9332    0       1.0     0.0     0.0     0
GRID    9333    0       1.0     1.0     0.0     0
GRID    9334    0       0.0     1.0     0.0     0
GRID    9335    0       0.0     0.0     1.0     0
GRID    9336    0       1.0     0.0     1.0     0
GRID    9337    0       1.0     1.0     1.0     0
GRID    9338    0       0.0     1.0     1.0     0
SPC1    1       1       9331    9334    9335    9338
SPC1    1       2       9335
SPC1    1       23      9331
SPC1    1       456     9331    THRU    9338
PLOAD4  2       9330    -15000.                         9332    9337
PLOAD4  3       9330    -120000.                        9332    9337
CPENTA  9100    9101    9101    9102    9103    9105    9106    9107
CPENTA  9101    9101    9101    9103    9104    9105    9107    9108
PSOLID  9101    2       0
GRID    9101    0       0.0     0.0     0.0     0       456
GRID    9102    0       1.0     0.0     0.0     0       456
GRID    9103    0       1.0     1.0     0.0     0       456
GRID    9104    0       0.0     1.0     0.0     0       456
GRID    9105    0       0.0     0.0     1.0     0       456
GRID    9106    0       1.0     0.0     1.0     0       456
GRID    9107    0       1.0     1.0     1.0     0       456
GRID    9108    0       0.0     1.0     1.0     0       456
SPC1    1       1       9101    9104    9105    9108
SPC1    1       2       9105
SPC1    1       23      9101
PLOAD4  2       9100    -15000.                         9102    9107
PLOAD4  3       9100    -45000.                         9102    9107
CPENTA  9110    9111    9111    9112    9113    9115    9116    9117
CPENTA  9111    9111    9111    9113    9114    9115    9117    9118
PSOLID  9111    3       0
GRID    9111    0       0.0     0.0     0.0     0
GRID    9112    0       1.0     0.0     0.0     0
GRID    9113    0       1.0     1.0     0.0     0
GRID    9114    0       0.0     1.0     0.0     0
GRID    9115    0       0.0     0.0     1.0     0
GRID    9116    0       1.0     0.0     1.0     0
GRID    9117    0       1.0     1.0     1.0     0
GRID    9118    0       0.0     1.0     1.0     0
SPC1    1       1       9111    9114    9115    9118
SPC1    1       2       9115
SPC1    1       23      9111
SPC1    1       456     9111    THRU    9118
PLOAD4  2       9110    -15000.                         9112    9117
PLOAD4  3       9110    -45000.                         9112    9117
CPENTA  9120    9121    9121    9122    9123    9125    9126    9127
CPENTA  9121    9121    9121    9123    9124    9125    9127    9128
PSOLID  9121    6       0
GRID    9121    0       0.0     0.0     0.0     0       456
GRID    9122    0       1.0     0.0     0.0     0       456
GRID    9123    0       1.0     1.0     0.0     0       456
GRID    9124    0       0.0     1.0     0.0     0       456
GRID    9125    0       0.0     0.0     1.0     0       456
GRID    9126    0       1.0     0.0     1.0     0       456
GRID    9127    0       1.0     1.0     1.0     0       456
GRID    9128    0       0.0     1.0     1.0     0       456
SPC1    1       1       9121    9124    9125    9128
SPC1    1       2       9125
SPC1    1       23      9121
PLOAD4  2       9120    -15000.                         9122    9127
PLOAD4  3       9120    -45000.                         9122    9127
CPENTA  9130    9131    9131    9132    9133    9135    9136    9137
CPENTA  9131    9131    9131    9133    9134    9135    9137    9138
PSOLID  9131    7       0
GRID    9131    0       0.0     0.0     0.0     0
GRID    9132    0       1.0     0.0     0.0     0
GRID    9133    0       1.0     1.0     0.0     0
GRID    9134    0       0.0     1.0     0.0     0
GRID    9135    0       0.0     0.0     1.0     0
GRID    9136    0       1.0     0.0     1.0     0
GRID    9137    0       1.0     1.0     1.0     0
GRID    9138    0       0.0     1.0     1.0     0
SPC1    1       1       9131    9134    9135    9138
SPC1    1       2       9135
SPC1    1       23      9131
SPC1    1       456     9131    THRU    9138
PLOAD4  2       9130    -15000.                         9132    9137
PLOAD4  3       9130    -120000.                        9132    9137
CTETRA  3900    3901    3901    3902    3906    3903
CTETRA  3901    3901    3901    3905    3906    3908
CTETRA  3902    3901    3908    3903    3904    3901
CTETRA  3903    3901    3908    3903    3907    3906
CTETRA  3904    3901    3901    3908    3903    3906
PSOLID  3901    2       0
GRID    3901    0       0.0     0.0     0.0     0       456
GRID    3902    0       1.0     0.0     0.0     0       456
GRID    3903    0       1.0     1.0     0.0     0       456
GRID    3904    0       0.0     1.0     0.0     0       456
GRID    3905    0       0.0     0.0     1.0     0       456
GRID    3906    0       1.0     0.0     1.0     0       456
GRID    3907    0       1.0     1.0     1.0     0       456
GRID    3908    0       0.0     1.0     1.0     0       456
SPC1    1       1       3901    3904    3905    3908
SPC1    1       2       3905
SPC1    1       23      3901
PLOAD4  2       3900    -15000.                         3902    3901
PLOAD4  2       3903    -15000.                         3907    3908
PLOAD4  3       3900    -45000.                         3902    3901
PLOAD4  3       3903    -45000.                         3907    3908
CTETRA  3910    3911    3911    3912    3916    3913
CTETRA  3911    3911    3911    3915    3916    3918
CTETRA  3912    3911    3918    3913    3914    3911
CTETRA  3913    3911    3918    3913    3917    3916
CTETRA  3914    3911    3911    3918    3913    3916
PSOLID  3911    3       0
GRID    3911    0       0.0     0.0     0.0     0
GRID    3912    0       1.0     0.0     0.0     0
GRID    3913    0       1.0     1.0     0.0     0
GRID    3914    0       0.0     1.0     0.0     0
GRID    3915    0       0.0     0.0     1.0     0
GRID    3916    0       1.0     0.0     1.0     0
GRID    3917    0       1.0     1.0     1.0     0
GRID    3918    0       0.0     1.0     1.0     0
SPC1    1       1       3911    3914    3915    3918
SPC1    1       2       3915
SPC1    1       23      3911
SPC1    1       456     3911    THRU    3918
PLOAD4  2       3910    -15000.                         3912    3911
PLOAD4  2       3913    -15000.                         3917    3918
PLOAD4  3       3910    -45000.                         3912    3911
PLOAD4  3       3913    -45000.                         3917    3918
CTETRA  3920    3921    3921    3922    3926    3923
CTETRA  3921    3921    3921    3925    3926    3928
CTETRA  3922    3921    3928    3923    3924    3921
CTETRA  3923    3921    3928    3923    3927    3926
CTETRA  3924    3921    3921    3928    3923    3926
PSOLID  3921    6       0
GRID    3921    0       0.0     0.0     0.0     0       456
GRID    3922    0       1.0     0.0     0.0     0       456
GRID    3923    0       1.0     1.0     0.0     0       456
GRID    3924    0       0.0     1.0     0.0     0       456
GRID    3925    0       0.0     0.0     1.0     0       456
GRID    3926    0       1.0     0.0     1.0     0       456
GRID    3927    0       1.0     1.0     1.0     0       456
GRID    3928    0       0.0     1.0     1.0     0       456
SPC1    1       1       3921    3924    3925    3928
SPC1    1       2       3925
SPC1    1       23      3921
PLOAD4  2       3920    -15000.                         3922    3921
PLOAD4  2       3923    -15000.                         3927    3928
PLOAD4  3       3920    -45000.                         3922    3921
PLOAD4  3       3923    -45000.                         3927    3928
CTETRA  3930    3931    3931    3932    3936    3933
CTETRA  3931    3931    3931    3935    3936    3938
CTETRA  3932    3931    3938    3933    3934    3931
CTETRA  3933    3931    3938    3933    3937    3936
CTETRA  3934    3931    3931    3938    3933    3936
PSOLID  3931    7       0
GRID    3931    0       0.0     0.0     0.0     0
GRID    3932    0       1.0     0.0     0.0     0
GRID    3933    0       1.0     1.0     0.0     0
GRID    3934    0       0.0     1.0     0.0     0
GRID    3935    0       0.0     0.0     1.0     0
GRID    3936    0       1.0     0.0     1.0     0
GRID    3937    0       1.0     1.0     1.0     0
GRID    3938    0       0.0     1.0     1.0     0
SPC1    1       1       3931    3934    3935    3938
SPC1    1       2       3935
SPC1    1       23      3931
SPC1    1       456     3931    THRU    3938
PLOAD4  2       3930    -15000.                         3932    3931
PLOAD4  2       3933    -15000.                         3937    3938
PLOAD4  3       3930    -45000.                         3932    3931
PLOAD4  3       3933    -45000.                         3937    3938
CQUAD4  13900   13901   13901   13902   13903   13904   0.
PLPLANE 13901   8
GRID    13901   0       0.0     0.0     0.0
GRID    13902   0       1.0     0.0     0.0
GRID    13903   0       1.0     1.0     0.0
GRID    13904   0       0.0     1.0     0.0
SPC1    1       23456   13901   13902
SPC1    1       13456   13901   13904
SPC1    1       3456    13903
FORCE1  2       13902   750.0   13901   13902
FORCE1  2       13903   750.0   13904   13903
FORCE1  3       13902   2250.0  13901   13902
FORCE1  3       13903   2250.0  13904   13903
CQUAD8  16400   16401   16401   16402   16403   16404   16405   16406   +QD81
+QD81   16407   16408
PLPLANE 16401   8
GRID    16401   0       0.0     0.0     0.0
GRID    16402   0       1.0     0.0     0.0
GRID    16403   0       1.0     1.0     0.0
GRID    16404   0       0.0     1.0     0.0
GRID    16405           0.5     0.0     0.
GRID    16406           1.0     0.5     0.
GRID    16407           0.5     1.0     0.
GRID    16408           0.0     0.5     0.
SPC1    1       23456   16401   16402   16405
SPC1    1       13456   16401   16404   16408
SPC1    1       3456    16403   16406   16407
FORCE1  2       16402   250.0   16401   16402
FORCE1  2       16403   250.0   16404   16403
FORCE1  2       16406   1000.0  16408   16406
FORCE1  3       16402   750.0   16401   16402
FORCE1  3       16403   750.0   16404   16403
FORCE1  3       16406   3000.0  16408   16406
CQUAD   16410   16411   16411   16412   16413   16414   16415   16416   +QD1
+QD1    16417   16418   16419
PLPLANE 16411   8
GRID    16411   0       0.0     0.0     0.0
GRID    16412   0       1.0     0.0     0.0
GRID    16413   0       1.0     1.0     0.0
GRID    16414   0       0.0     1.0     0.0
GRID    16415           0.5     0.0     0.
GRID    16416           1.0     0.5     0.
GRID    16417           0.5     1.0     0.
GRID    16418           0.0     0.5     0.
GRID    16419           0.5     0.5     0.
SPC1    1       23456   16411   16412   16415
SPC1    1       13456   16411   16414   16418
SPC1    1       3456    16413   16416   16417
FORCE1  2       16412   250.0   16411   16412
FORCE1  2       16413   250.0   16414   16413
FORCE1  2       16416   1000.0  16418   16416
FORCE1  3       16412   750.0   16411   16412
FORCE1  3       16413   750.0   16414   16413
FORCE1  3       16416   3000.0  16418   16416
CTRIA3  16200   16201   16201   16202   16203
CTRIA3  16201   16201   16201   16203   16204
PLPLANE 16201   8
GRID    16201   0       0.0     0.0     0.0
GRID    16202   0       1.0     0.0     0.0
GRID    16203   0       1.0     1.0     0.0
GRID    16204   0       0.0     1.0     0.0
SPC1    1       23456   16201   16202
SPC1    1       13456   16201   16204
SPC1    1       3456    16203
FORCE1  2       16202   750.0   16201   16202
FORCE1  2       16203   750.0   16204   16203
FORCE1  3       16202   2250.0  16201   16202
FORCE1  3       16203   2250.0  16204   16203
CTRIA6  16700   16701   16701   16702   16703   16705   16706   16709
CTRIA6  16701   16701   16701   16703   16704   16709   16707   16708
PLPLANE 16701   8
GRID    16701   0       0.0     0.0     0.0
GRID    16702   0       1.0     0.0     0.0
GRID    16703   0       1.0     1.0     0.0
GRID    16704   0       0.0     1.0     0.0
GRID    16705           0.5     0.0     0.
GRID    16706           1.0     0.5     0.
GRID    16707           0.5     1.0     0.
GRID    16708           0.0     0.5     0.
GRID    16709           0.5     0.5     0.
SPC1    1       23456   16701   16702   16705
SPC1    1       13456   16701   16704   16708
SPC1    1       3456    16703   16706   16707
FORCE1  2       16702   250.0   16701   16702
FORCE1  2       16703   250.0   16704   16703
FORCE1  2       16706   1000.0  16708   16706
FORCE1  3       16702   750.0   16701   16702
FORCE1  3       16703   750.0   16704   16703
FORCE1  3       16706   3000.0  16708   16706
CHEXA   14000   14001   14001   14002   14003   14004   14005   14006   +C14001
+C14001 14007   14008
PLSOLID 14001   8
GRID    14001   0       0.0     0.0     0.0     0       456
GRID    14002   0       1.0     0.0     0.0     0       456
GRID    14003   0       1.0     1.0     0.0     0       456
GRID    14004   0       0.0     1.0     0.0     0       456
GRID    14005   0       0.0     0.0     1.0     0       456
GRID    14006   0       1.0     0.0     1.0     0       456
GRID    14007   0       1.0     1.0     1.0     0       456
GRID    14008   0       0.0     1.0     1.0     0       456
SPC1    1       1       14001   14004   14005   14008
SPC1    1       2       14005
SPC1    1       23      14001
PLOAD4  2       14000   -15000.                         14002   14007
PLOAD4  3       14000   -45000.                         14002   14007
CHEXA   16300   16301   16301   16302   16303   16304   16305   16306   +C16301
+C16301 16307   16308   16309   16310   16311   16312   16313   16314   +C16302
+C16302 16315   16316   16317   16318   16319   16320
PLSOLID 16301   8
GRID    16301   0       0.0     0.0     0.0     0       456
GRID    16302   0       1.0     0.0     0.0     0       456
GRID    16303   0       1.0     1.0     0.0     0       456
GRID    16304   0       0.0     1.0     0.0     0       456
GRID    16305   0       0.0     0.0     1.0     0       456
GRID    16306   0       1.0     0.0     1.0     0       456
GRID    16307   0       1.0     1.0     1.0     0       456
GRID    16308   0       0.0     1.0     1.0     0       456
GRID    16309           0.5     0.0     0.              456
GRID    16310           1.0     0.5     0.              456
GRID    16311           0.5     1.0     0.              456
GRID    16312           0.0     0.5     0.              456
GRID    16313           0.0     0.0     0.5             456
GRID    16314           1.0     0.      0.5             456
GRID    16315           1.0     1.0     0.5             456
GRID    16316           0.      1.      0.5             456
GRID    16317           0.5     0.0     1.              456
GRID    16318           1.0     0.5     1.              456
GRID    16319           0.5     1.      1.              456
GRID    16320           0.      0.5     1.              456
SPC1    1       1       16301   16304   16305   16308   16312   16313   +SP1A
+SP1A   16316   16320
SPC1    1       2       16305
SPC1    1       23      16301
PLOAD4  2       16300   -15000.                         16302   16307
PLOAD4  3       16300   -45000.                         16302   16307
CPENTA  16000   16001   16001   16002   16003   16005   16006   16007
CPENTA  16001   16001   16001   16003   16004   16005   16007   16008
PLSOLID 16001   8
GRID    16001   0       0.0     0.0     0.0     0       456
GRID    16002   0       1.0     0.0     0.0     0       456
GRID    16003   0       1.0     1.0     0.0     0       456
GRID    16004   0       0.0     1.0     0.0     0       456
GRID    16005   0       0.0     0.0     1.0     0       456
GRID    16006   0       1.0     0.0     1.0     0       456
GRID    16007   0       1.0     1.0     1.0     0       456
GRID    16008   0       0.0     1.0     1.0     0       456
SPC1    1       1       16001   16004   16005   16008
SPC1    1       2       16005
SPC1    1       23      16001
PLOAD4  2       16000   -15000.                         16002   16007
PLOAD4  3       16000   -45000.                         16002   16007
CPENTA  16500   16501   16501   16502   16503   16505   16506   16507   +C16501
+C16501 16509   16510   16521   16513   16514   16515   16517   16518   +C16502
+C16502 16522
CPENTA  16501   16501   16501   16503   16504   16505   16507   16508   +C16503
+C16503 16521   16511   16512   16513   16515   16516   16522   16519   +C16504
+C16504 16520
PLSOLID 16501   8
GRID    16501   0       0.0     0.0     0.0     0       456
GRID    16502   0       1.0     0.0     0.0     0       456
GRID    16503   0       1.0     1.0     0.0     0       456
GRID    16504   0       0.0     1.0     0.0     0       456
GRID    16505   0       0.0     0.0     1.0     0       456
GRID    16506   0       1.0     0.0     1.0     0       456
GRID    16507   0       1.0     1.0     1.0     0       456
GRID    16508   0       0.0     1.0     1.0     0       456
GRID    16509           0.5     0.0     0.              456
GRID    16510           1.0     0.5     0.              456
GRID    16511           0.5     1.0     0.              456
GRID    16512           0.0     0.5     0.              456
GRID    16513           0.0     0.0     0.5             456
GRID    16514           1.0     0.      0.5             456
GRID    16515           1.0     1.      0.5             456
GRID    16516           0.      1.      0.5             456
GRID    16517           0.5     0.0     1.              456
GRID    16518           1.0     0.5     1.              456
GRID    16519           0.5     1.      1.              456
GRID    16520           0.      0.5     1.              456
GRID    16521           0.5     0.5     0.              456
GRID    16522           0.5     0.5     1.              456
SPC1    1       1       16501   16504   16505   16508   16512   16513   +SP2A
+SP2A   16516   16520
SPC1    1       2       16505
SPC1    1       23      16501
PLOAD4  2       16500   -15000.                         16502   16507
PLOAD4  3       16500   -45000.                         16502   16507
CTETRA  16100   16101   16101   16102   16106   16103
CTETRA  16101   16101   16101   16105   16106   16108
CTETRA  16102   16101   16108   16103   16104   16101
CTETRA  16103   16101   16108   16103   16107   16106
CTETRA  16104   16101   16101   16108   16103   16106
PLSOLID 16101   8
GRID    16101   0       0.0     0.0     0.0     0       456
GRID    16102   0       1.0     0.0     0.0     0       456
GRID    16103   0       1.0     1.0     0.0     0       456
GRID    16104   0       0.0     1.0     0.0     0       456
GRID    16105   0       0.0     0.0     1.0     0       456
GRID    16106   0       1.0     0.0     1.0     0       456
GRID    16107   0       1.0     1.0     1.0     0       456
GRID    16108   0       0.0     1.0     1.0     0       456
SPC1    1       1       16101   16104   16105   16108
SPC1    1       2       16105
SPC1    1       23      16101
PLOAD4  2       16100    -15000.                         16102    16101
PLOAD4  2       16103    -15000.                         16107    16108
PLOAD4  3       16100    -45000.                         16102    16101
PLOAD4  3       16103    -45000.                         16107    16108
CTETRA  16600   16601   16601   16602   16606   16603   16609   16614   +C16601
+C16601 16626   16621   16610   16623
CTETRA  16601   16601   16601   16605   16606   16608   16613   16617   +C16602
+C16602 16626   16625   16620   16622
CTETRA  16602   16601   16608   16603   16604   16601   16624   16611   +C16603
+C16603 16616   16625   16621   16612
CTETRA  16603   16601   16608   16603   16607   16606   16624   16615   +C16604
+C16604 16619   16622   16623   16618
CTETRA  16604   16601   16601   16608   16603   16606   16625   16624   +C16605
+C16605 16621   16626   16622   16623
PLSOLID 16601   8
GRID    16601   0       0.0     0.0     0.0     0       456
GRID    16602   0       1.0     0.0     0.0     0       456
GRID    16603   0       1.0     1.0     0.0     0       456
GRID    16604   0       0.0     1.0     0.0     0       456
GRID    16605   0       0.0     0.0     1.0     0       456
GRID    16606   0       1.0     0.0     1.0     0       456
GRID    16607   0       1.0     1.0     1.0     0       456
GRID    16608   0       0.0     1.0     1.0     0       456
GRID    16609           0.5     0.0     0.              456
GRID    16610           1.0     0.5     0.              456
GRID    16611           0.5     1.0     0.              456
GRID    16612           0.0     0.5     0.              456
GRID    16613           0.0     0.0     0.5             456
GRID    16614           1.0     0.      0.5             456
GRID    16615           1.0     1.      0.5             456
GRID    16616           0.      1.      0.5             456
GRID    16617           0.5     0.0     1.              456
GRID    16618           1.0     0.5     1.              456
GRID    16619           0.5     1.      1.              456
GRID    16620           0.      0.5     1.              456
$ ... 6 like lines cut
SPC1    1       1       16601   16604   16605   16608   16612   16613   +SP3A
+SP3A   16616   16620   16625
SPC1    1       2       16605
SPC1    1       23      16601
PLOAD4  2       16600    -15000.                         16602    16601
PLOAD4  2       16603    -15000.                         16607    16608
PLOAD4  3       16600    -45000.                         16602    16601
PLOAD4  3       16603    -45000.                         16607    16608
CQUADX  17000   17001   17001   17002   17003   17004
PLPLANE 17001   8
GRID    17001   0       0.0     0.0     0.0
GRID    17002   0       1.0     0.0     0.0
GRID    17003   0       1.0     1.0     0.0
GRID    17004   0       0.0     1.0     0.0
SPC1    1       23456   17001   17002
SPC1    1       13456   17001   17004
SPC1    1       3456    17003
FORCE1  2       17002   750.0   17001   17002
FORCE1  2       17003   750.0   17004   17003
FORCE1  3       17002   2250.0  17001   17002
FORCE1  3       17003   2250.0  17004   17003
CQUADX  17100   17101   17101   17102   17103   17104   17105   17106   +C17101
+C17101 17107   17108   17109
PLPLANE 17101   8
GRID    17101   0       0.0     0.0     0.0
GRID    17102   0       1.0     0.0     0.0
GRID    17103   0       1.0     1.0     0.0
GRID    17104   0       0.0     1.0     0.0
GRID    17105           0.5     0.0     0.
GRID    17106           1.0     0.5     0.
GRID    17107           0.5     1.0     0.
GRID    17108           0.0     0.5     0.
GRID    17109           0.5     0.5     0.
SPC1    1       23456   17101   17102   17105
SPC1    1       13456   17101   17104   17108
SPC1    1       3456    17103   17106   17107
FORCE1  2       17102   250.0   17101   17102
FORCE1  2       17103   250.0   17104   17103
FORCE1  2       17106   1000.0  17108   17106
FORCE1  3       17102   750.0   17101   17102
FORCE1  3       17103   750.0   17104   17103
FORCE1  3       17106   3000.0  17108   17106
CTRIAX  16800   16801   16801   16802   16803
CTRIAX  16801   16801   16801   16803   16804
PLPLANE 16801   8
GRID    16801   0       0.0     0.0     0.0
GRID    16802   0       1.0     0.0     0.0
GRID    16803   0       1.0     1.0     0.0
GRID    16804   0       0.0     1.0     0.0
SPC1    1       23456   16801   16802
SPC1    1       13456   16801   16804
SPC1    1       3456    16803
FORCE1  2       16802   750.0   16801   16802
FORCE1  2       16803   750.0   16804   16803
FORCE1  3       16802   2250.0  16801   16802
FORCE1  3       16803   2250.0  16804   16803
CTRIAX  16900   16901   16901   16902   16903   16905   16906   16909
CTRIAX  16901   16901   16901   16903   16904   16909   16907   16908
PLPLANE 16901   8
GRID    16901   0       0.0     0.0     0.0
GRID    16902   0       1.0     0.0     0.0
GRID    16903   0       1.0     1.0     0.0
GRID    16904   0       0.0     1.0     0.0
GRID    16905           0.5     0.0     0.
GRID    16906           1.0     0.5     0.
GRID    16907           0.5     1.0     0.
GRID    16908           0.0     0.5     0.
GRID    16909           0.5     0.5     0.
SPC1    1       23456   16901   16902   16905
SPC1    1       13456   16901   16904   16908
SPC1    1       3456    16903   16906   16907
FORCE1  2       16902   250.0   16901   16902
FORCE1  2       16903   250.0   16904   16903
FORCE1  2       16906   1000.0  16908   16906
FORCE1  3       16902   750.0   16901   16902
FORCE1  3       16903   750.0   16904   16903
FORCE1  3       16906   3000.0  16908   16906
PARAM,POST,-1
ENDDATA
