SOL 112
CEND
TITLE = transient simulation
ECHO = NONE
SET 100 = 1,13,24
ACCELERATION(PLOT,SORT1) = 100
DISPLACEMENT(PLOT,SORT1) = 100
SET 300 = 1,11,13
FORCE(PLOT,SORT1) = 300
SET 400 = 1
SPCFORCE(PLOT,SORT1) = 400
METHOD = 1
SPC = 1
SDAMPING = 300
TSTEP = 123
SUBCASE 1
   DLOAD = 10
SUBCASE 2
   DLOAD = 20
SUBCASE 3
   DLOAD = 30
   
BEGIN BULK
PARAM,POST,-1
PARAM,OGEOM,NO
PARAM,AUTOSPC,YES
PARAM,PRGPST,NO
PARAM,GRDPNT,0
PARAM,WTMASS,.00259
PARAM,RESVEC,YES
PARAM,RESVINER,YES

CONM2,16000000,1,0,1.e9

SPC1           1     456     1

DLOAD         10      1.      1.     101
DLOAD         20      1.      1.     102
DLOAD         30      1.      1.     103

TLOAD1       101       1            LOAD       2
TLOAD1       102       2            LOAD       1
TLOAD1       103       3            LOAD       1

FORCE,1,1,0,1.e9,1.,0.,0.  
FORCE,2,1,0,1.e9,0.,1.,0. 
FORCE,3,1,0,1.e9,0.,0.,1.  

TSTEP        123     700    .005

TABDMP1      300    CRIT                                                +
+             0.    .010  10000.    .010    ENDT

EIGRL,1,,,50

$ Femap with NX Nastran Property 1 : BAR Property
PBAR           1       1     .026.6667-51.6667-54.5794-5      0.        +       
+            -.1    -.05      .1    -.05      .1     .05     -.1     .05+       
+         .84993   .8507      0.
$ Femap with NX Nastran Property 2 : bush
PBUSH          2       K1000000.1000000.1000000.    1.+9    1.+9    1.+9                
$ Femap with NX Nastran Property 3 : plate
PSHELL         3       1     .05       1               1              0.+       
+             0.                
$ Femap with NX Nastran Property 4 : BEAM Property (Rectangular Bar)
$ Femap with NX Nastran PropShape 4 : 1,0,0.1,0.4,0.,0.,0.,0.
$ Femap with NX Nastran PropOrient 4 : 1,0,0.,1.,2.,3.,4.,-1.,0.,0.
PBEAM          4       1     .045.3333-43.3333-5      0.1.1258-4      0.+       
+            -.2    -.05      .2    -.05      .2     .05     -.2     .05+       
+           YESA      1.                                                +       
+       .8498575  .85231                                                        
$ Femap with NX Nastran Material 1 : ISOTROPIC Material
MAT1           1    1.+73846154.      .3      .1      0.      0.        
GRID           1       0      0.      0.      0.       0
GRID           2       0     10.      0.      0.       0
GRID           3       0      6.      0.      0.       0
GRID           4       0      1.      0.      0.       0
GRID           5       0      2.      0.      0.       0
GRID           6       0      3.      0.      0.       0
GRID           7       0      4.      0.      0.       0
GRID           8       0      5.      0.      0.       0
GRID           9       0      6.      0.      0.       0
GRID          10       0      7.      0.      0.       0
GRID          11       0      8.      0.      0.       0
GRID          12       0      9.      0.      0.       0
GRID          13       0      8.     -2.      0.       0
GRID          14       0     10.     -2.      0.       0
GRID          16       0      8.     -1.      0.       0
GRID          19       0      9.     -1.      0.       0
GRID          20       0      9.     -2.      0.       0
GRID          22       0     10.     -1.      0.       0
GRID          24       0     12.      0.      0.       0
GRID          26       0     11.      0.      0.       0
CBAR           1       1       1       4      0.      1.      0.
CBAR           2       1       4       5      0.      1.      0.
CBAR           3       1       5       6      0.      1.      0.
CBAR           4       1       6       7      0.      1.      0.
CBAR           5       1       7       8      0.      1.      0.
CBAR           6       1       8       9      0.      1.      0.
CBAR           7       1       3      10      0.      1.      0.
CBAR           8       1      10      11      0.      1.      0.
CBAR           9       1      11      12      0.      1.      0.
CBAR          10       1      12       2      0.      1.      0.
CBUSH         11       2       9       3      1.      0.      0.       0
CQUAD4        12       3      11      16      19      12                
CQUAD4        13       3      16      13      20      19                
CQUAD4        14       3      12      19      22       2                
CQUAD4        15       3      19      20      14      22                
CBEAM         16       4       2      26      0.      1.      0.
CBEAM         17       4      26      24      0.      1.      0.
RBE2          18      10  123456      16

TABLED1        1  LINEAR  LINEAR
              0.      0.    .005.0030902     .01.0117557    .015.0242705
             .02.0380423    .025     .05     .03.0570634    .035.0566312
             .04.0470228    .045.0278115     .051.225-17    .055-.033992
             .06-.070534    .065-.105172     .07-.133148    .075    -.15
             .08-.152169    .085-.137533     .09-.105801    .095-.058713
              .1 -4.9-17    .105.0648936     .11.1293128    .115.1860739
             .12.2282536    .125     .25     .13.2472747    .135.2184346
             .14.1645799    .145.0896149     .151.102-16    .155-.095795
             .16-.188091    .165-.266976     .17-.323359    .175    -.35
             .18 -.34238    .185-.299336     .19-.223358    .195-.120517
              .2-1.96-16    .205 .126697     .21.2468698    .215.3478773
             .22.4184649    .225     .45     .23 .437486    .235 .380238
             .24.2821369    .245.1514183     .253.062-16    .255-.157599
             .26-.305648    .265-.428779     .27-.513571    .275    -.55
             .28-.532592    .285 -.46114     .29-.340915    .295 -.18232
              .3-4.41-16    .305.1885004     .31.3644269    .315.5096807
             .32.6086762    .325     .65     .33.6276973    .335.5420414
             .34 .399694    .345.2132217     .35-1.89-15    .355-.219402
             .36-.423205    .365-.590582     .37-.703782    .375    -.75
             .38-.722803    .385-.622943     .39-.458472    .395-.244123
$ ... 55 like lines cut
             1.5      0.     2.5      0.    ENDT
TABLED1        2  LINEAR  LINEAR
              0.      0.   .0025.0030902    .005.0117557   .0075.0242705
             .01.0380423   .0125     .05    .015.0570634   .0175.0566312
             .02.0470228   .0225.0278115    .0251.225-17   .0275-.033992
             .03-.070534   .0325-.105172    .035-.133148   .0375    -.15
             .04-.152169   .0425-.137533    .045-.105801   .0475-.058713
             .05 -4.9-17   .0525.0648936    .055.1293128   .0575.1860739
             .06.2282536   .0625     .25    .065.2472747   .0675.2184346
             .07.1645799   .0725.0896149    .0751.102-16   .0775-.095795
             .08-.188091   .0825-.266976    .085-.323359   .0875    -.35
             .09 -.34238   .0925-.299336    .095-.223358   .0975-.120517
              .1-1.96-16   .1025 .126697    .105.2468698   .1075.3478773
             .11.4184649   .1125     .45    .115 .437486   .1175 .380238
             .12.2821369   .1225.1514183    .1253.062-16   .1275-.157599
             .13-.305648   .1325-.428779    .135-.513571   .1375    -.55
             .14-.532592   .1425 -.46114    .145-.340915   .1475 -.18232
             .15-4.41-16   .1525.1885004    .155.3644269   .1575.5096807
             .16.6086762   .1625     .65    .165.6276973   .1675.5420414
             .17 .399694   .1725.2132217    .175-1.89-15   .1775-.219402
             .18-.423205   .1825-.590582    .185-.703782   .1875    -.75
             .19-.722803   .1925-.622943    .195-.458472   .1975-.244123
$ ... 55 like lines cut
             .75      0.    1.75      0.    ENDT

ENDDATA
