$ DEC/CMS REPLACEMENT HISTORY, Element HD15901.DAT
$ *2    13-JAN-1994 16:42:38 A_BOYADJIAN "68 PLUS/G/ HEAT TRANSFER CONVERTED DECKS FOR V68 /DCC"
$ *1    15-JUN-1990 16:38:23 CMSMGR "66B PLUS/G 66B/ Initial installation of DEMO test problems"
$ DEC/CMS REPLACEMENT HISTORY, Element HD15901.DAT
$ DEC/CMS REPLACEMENT HISTORY, ELEMENT HD15901.DAT
$ *1    15-JUN-1990 16:38:23 CMSMGR "66B PLUS/G 66B/ INITIAL INSTALLATION OF DEMO TEST PROBLEMS"
$ DEC/CMS REPLACEMENT HISTORY, ELEMENT HD15901.DAT
ID MSC, HD15901 $ DBS=HD15901
$ID MSC, HDEM03   $
$ID MSC, HDEMO03  $
$ID CLASS PROBLEM THREE. C.E.JACKSON
$
$       MAXIMUM CPU TIME ALLOWED FOR THE JOB
$
TIME 10 $ UNITS ARE MINUTES
$
$       THE THERMAL ANALYZER PORTION OF MSC/NASTRAN IS TO BE USED
$
$
$       THE NON-LINEAR TRANSIENT SOLUTION ALGORITHM IS TO BE USED
$
$SOL 89
SOL 159
CEND $ END OF EXECUTIVE CONTROL DECK
ANALYSIS = HEAT
$
$*******
$       END OF EXECUTIVE CONTROL  ...  START CASE CONTROL
$*******
$
TITLE=          NON-LINEAR TRANSIENT PROBLEM                   HD15901
$       REQUEST SORTED AND UNSORTED CARD ECHO=S  TO SEE COMMENTS
$       IF THIS CARD IS OMITTED ONLY THE SORTED BULK DATA WILL APPEAR
$       COMMENT CARDS WOULD THEN NOT BE PRINTED
ECHO = BOTH
$
$       SPECIFY THE SUPERELEMENTS TO BE RUN
$       THIS CARD IS REQUIRED AND SPECIFIES ALL
$       FOR THIS MODEL THERE IS BUT A SINGLE SUPERELEMENT WHICH
$               ENCOMPASSES THE ENTIRE MODEL
$SEALL=ALL $ SEALL=ALL IS DEFAULT IN THIS SOL
$
$
$       SELECT THE MPC AND LOAD SETS TO BE USED IN THIS RUN
$       NOTE THAT NO SPC SET IS SELECTED AND THAT DLOAD HAS REPLACED
$               LOAD
$
MPC=200
DLOAD=300
$
$       SELECT THE TEMPERATURE SET WHICH IS AN ESTIMATE OF THE FINAL
$               SOLUTION VECTOR
$       THE SELECTION IS OPTIONAL FOR SOL 89 BUT SHOULD BE MADE IF
$       THE FINAL TEMPERATURE IS SEVERAL HUNDRED DEGREES DIFFERENT
$       FROM THE INITIAL CONDITIONS VECTOR AND RADIATIVE
$       INTERCHANGES ARE INCLUDED
$
$
$       SELECT THE STEP SIZE , NUMBER OF INCREMENTS AND PRINT FREQ
$
TSTEPNL = 500
$
$       SELECT THE TEMPERATURE SET DEFINING THE TEMPERATURE VECTOR AT
$       TIME = O.
$
IC  = 600
$
$       SELECT THE OUTPUT DESIRED (TEMPERATURES AND LOADS)
$
OUTPUT
THERMAL = ALL
$
$       DEFINE A GROUP OF GRID POINTS TO BE REFERENCED BY AN OUTPUT
$       REQUEST
$
SET 5 = 1,2,3,4,5,6,7,8,100
$
$       REFERENCE A PREVIOUSLY DEFINED GROUP OF GRID POINTS
$
OLOAD = 5
$*******
$       PLOT PACKAGE TO DISPLAY MODEL AND SOLUTION
$*******
OUTPUT(PLOT)
CSCALE 1.8
PLOTTER NASTRAN
SET 1 INCLUDE ALL EXCEPT HBDY
FIND SET 1 ORIGIN 1 SCALE
PTITLE = BASIC MODEL
PLOT SET 1
PTITLE = LABEL GRIDS
PLOT SET 1 LABEL GRIDS
PTITLE = LABEL ELEMENTS
PLOT SET 1 LABEL ELEMENTS
PTITLE = LABEL ELEMENT PROPERTIES
PLOT SET 1 LABEL EPID
PTITLE = CHECK RADIATION ELEMENTS
SET 2 INCLUDE HBDY
FIND SET 2 ORIGIN 2 SCALE
PLOT SET 2 ORIGIN 2
PTITLE = THERMAL DEFORMATION
PLOT TRANSIENT DEFORMATION 0,TIME 920.,940. SET 1 ORIGIN 1
PTITLE = THERMAL CONTOUR
CONTOUR MAGNITUDE
PLOT CONTOUR 0,TIME 920.,940. SET 1 OUTLINE PRINT
$       THE FOLLOWING CARDS REQUEST 4 FRAMES OF TRANSIENT PLOTS
$       THESE PLOTS WILL BE PRODUCED ON THE PRINTER AND PLOTTER
$
OUTPUT(XYOUT)
SEPLOT 0
CSCALE = 1.8
PLOTTER = NASTRAN
XTITLE=TIME IN SECONDS
YTITLE = DEGREES CELSIUS GP(100,1,4)
$
$       =TEMP= MEANS THAT THE GRID POINT TEMPERATURE WILL BE PLOTTED
$       VERSUS TIME
$       =T1= IS A REQUIRED (VESTIGIAL REMNANT FROM THE STRUCTURAL
$       VERSION OF MSC/NASTRAN
$
XYPLOT,XYPAPLOT TEMP/100(T1),1(T1),4(T1)
XTITLE=TIME IN SECONDS
YTITLE = DEGREES CELSIUS PER SECOND GP(100,1,4)
$
$       =VELO= MEANS THAT THE THERMAL VELOCITY WILL BE PLOTTED AS
$       A FUNCTION OF TIME
$       THESE THREE PLOTS WILL APPEAR ON THREE DIFFERENT FRAMES
XYPLOT,XYPAPLOT VELO /100(T1)/1(T1)/4(T1)
$
$*******
$       END CASE CONTROL ... START BULK DATA
$
BEGIN BULK $ ENDS CASECONTROL DECK
$
$
$       UNITS MUST BE CONSISTENT
$       IN THIS PROBLEM METERS,WATTS,AND DEGREES CELSIUS ARE USED.
$
$       DEFINE GRID POINTS
$
$
$       CONNECT GRID POINTS
$
$
$       THE FOLLOWING CARDS IMPROVE THE PLOT
$
$
$       DEFINE CROSS-SECTIONAL AREAS AND/OR THICKNESS
$
$
$       DEFINE MATERIAL THERMAL CONDUCTIVITY AND THERMAL CAPACITY
$
$
$       DEFINE CONVECTIVE AREA AND CONVECTIVE COEFFICIENT =H=
$
$
$       DEFINE CONSTRAINTS
$
$
$       DEFINE APPLIED LOADS
$
$
$*************
$       THE FOLLOWING BULK DATA CARDS WERE ADDED TO CONVERT PROBLEM ONE
$       PROBLEM TWO.
$
$       THIS SPC1 REPRESENTS THE CONSTRAINTS FOR PROBLEM TWO
$
$
$       RADIATION BOUNDARY ELEMENTS
$
$
$       EMISSIVITY OF RADIATING ELEMENT
$
$
$       ESTIMATE OF FINAL TRANSIENT SOLUTION SOLUTION VECTOR --REFERENCE
$       TEMP(ESTIMATE) IN CASE CONTROL
$
$
$       PARAMETERS CONTROLLING RADIATION LOADING AND THE ITERATION LOOPI
$
$
$       PARAMETER TO TURN OFF PLOT MESSAGES
$
$
$       DEFINITION OF THE RADIATION MATRIX
$               ALL OF THE RADIATION GOES TO SPACE
$
$**********
$       THE FOLLOWING BULK DATA CARDS WERE ADDED FOR THE TRANSIENT
$               SOLUTION
$       THEY CONVERT PROBLEM TWO TO PROBLEM THREE
$       NOTE THAT THE SPC1 SET WAS NOT SELECTED IN CASE CONTROL
$       NOTE THAT SPCF OUTPUT IS NOT REQUESTED IN TRANSIENT
$       NOTE THAT THE LOAD REQUEST IN CASE CONTROL IS NOW A DLOAD
$               REQUEST
$       NOTE THAT THERMAL CAPACITY WAS ADDED TO MAT4 CARD 1000
$
$
$       TRANSIENT SINGLE POINT CONSTRAINT METHOD
$       CONSTRAIN GRID POINT 100 TO 300 DEGREES CELSIUS
$
$
$       DEFINES A CONSTANT LOAD SET APPLIED FROM T=0. TO T=1.+6 SECONDS
$
$
$       DEFINES THE NUMBER OF INCREMENTS,THE STEP SIZE AND THE
$       PRINTOUT FREQUENCY
$       REFERENCED IN CASE CONTROL AS =TSTEP=
$       EACH TIME STEP IS 30 SECONDS
$       31 ITERATIONS ARE SELECTED TO ALLOW PRINTERPLOT TO FIT ON
$       ONE PAGE
$
$
$       DEFINES A TEMPERATURE VECTOR ... REFERENCED IN CASE CONTROL
$               AS =IC=
$
$
$*******
$       END OF BULK DATA DECK
$
CELAS2  301     1.+5    100     1
CHBDYP  60      300     LINE                    1       5
                                                        1.
CHBDYG  200             AREA4                   2000
        1       2       6       5
CHBDYG  300             AREA4                   2000
        2       3       7       6
CHBDYG  400             AREA4                   2000
        3       4       8       7
CHBDYG  500             AREA4                   2000
        5       6       2       1
CHBDYG  600             AREA4                   2000
        6       7       3       2
CHBDYG  700             AREA4                   2000
        7       8       4       3
PHBDY   300     .314
PCONV   300     3000
CONV    60      300                     100     100
RADM    2000            .90
CQUAD4  30      200     1       2       6       5
CQUAD4  40      200     2       3       7       6
CQUAD4  50      200     3       4       8       7
CROD    10      100     10      2
CROD    20      100     9       6
GRID    1
GRID    2               .1
GRID    3               .2
GRID    4               .3
GRID    5                       .1
GRID    6               .1      .1
GRID    7               .2      .1
GRID    8               .3      .1
GRID    9                       .2
GRID    10                      -.1
GRID    100             -.05    .05
MAT4    1000    200.    2.426+6
MAT4    3000                            200.
MPC     200     9       1       1.      5       1       -1.
MPC     200     10      1       1.      1       1       -1.
PARAM   EPSHT   .0001
PARAM   MAXIT   8
PARAM   PDRMSG  1
PARAM   PLTMSG  0
PARAM   SIGMA   5.685E-8
PARAM   TABS    273.15
PLOTEL  70      5       9
PLOTEL  80      1       10
PROD    100     1000    .001
PSHELL  200     1000    .01
RADLST  1       1       200     300     400     500     600     700
RADCAV  1                                               0.1
RADSET  1
RADMTX  1       1       0.      0.      0.      0.      0.      0.
RADMTX  1       2       0.      0.      0.      0.      0.
RADMTX  1       3       0.      0.      0.      0.
RADMTX  1       4       0.      0.      0.
RADMTX  1       5       0.      0.
RADMTX  1       6       0.
SLOAD   300     1       4.      2       8.
SLOAD   300     3       8.      4       4.
SLOAD   300     5       4.      6       8.
SLOAD   300     7       8.      8       4.
SLOAD   300     100     300.+5
SPC     100     100     1       300.
TEMP    400     100     300.
TEMPD   400     300.
TEMPD   600     300.
TLOAD2  300     300                     0.      1.+6    0.      0.
        0.      0.
TSTEPNL 500     31      30.     1
$
$User Information Message: A number of default values are used when certain parameters are not available from the old decks.
$                          These parameters are given as the follows:
$CHBDYP  E1=3.141 E2=1.414 E3=1.732
$PHBDY   D1=1. D2=1.
$PCONVM  FORM=0 FLAG=1 COEF=1.E-6 EXPR=0. EXPPI=0. EXPPO=0.
$CONVM   TA1=99999
$SPC     C1=1
$MAT4    RHO (DENSITY) = 1.
$VIEW3D  ICAVITY=1
$RADCAV  ICAVITY=1 RMAX=0.1
$RADMTX  ICAVITY=1
$RADLST  ICAVITY=1 MTXTYP=1
PARAM,POST,-1
ENDDATA
