id msc, htflw47.dat $ v2005 sjf 1-Jun-2004
SOL 101
TIME 10
app heat
CEND
TITLE = QBDY3 HEAT FLUX LOAD     
SEALL = ALL
SET 32 = 6, 1, 4
SET 40 = 5, 3, 6
TEMP(INIT) = 30
SPC = 10
THERMAL = ALL
FLUX = ALL
HTFLOW = ALL
NLPARM = 100
SUBCASE 1
  LOAD = 20
SUBCASE 2
  LOAD = 30
BEGIN BULK
NLPARM,100
GRID,1,,1.0,0.0,1.0
GRID,2,,1.0,0.0,0.0  
GRID,3,,0.0,0.0,0.0   
GRID,4,,0.0,0.0,1.0   
GRID,5,,1.0,1.0,1.0  
GRID,6,,1.0,1.0,0.0 
GRID,7,,0.0,1.0,0.0   
GRID,8,,0.0,1.0,1.0   
GRID,10,,10.0,10.0,10.0
CHEXA,1,1,1,2,3,4,5,6,+CHX1
+CHX1,7,8
PSOLID,1,1 
MAT4,1,1.00,,,10.0,,1.0
QBDY3,20,.1666666,,1,2,3,4,5,+QBY1
+QBY1,6
QBDY3,30,.3333333,,1,2,3,4,5,+QBY2
+QBY2,6
CHBDYE,1,1,1
CHBDYE,2,1,2
CHBDYE,3,1,3
CHBDYE,4,1,4
CHBDYE,5,1,5
CHBDYE,6,1,6
CONV,1,1,,,10
CONV,2,1,,,10
CONV,3,1,,,10
CONV,4,1,,,10
CONV,5,1,,,10
CONV,6,1,,,10
PCONV,1,1,0,0.0  
TEMPBC,10,STAT,0.0,10
TEMPD,30,100.0
PARAM,POST,-1
ENDDATA
