$ pyNastran: version=nx
NASTRAN FREQVM=1 SYSTEM(524)=1
$*$$$$$$$$$$$$$$$$$$$$$$$$$$$$$$$$$$$$$$$$$$$$$$$$$$$$$$$$$$$$$$$$$
$ DESCRIPTION - Test Displacement/Pressure Output Separation of Vibro-Acoustics 
$               Test Random Analysis Results
$               Material:MAT10 and MAT1 
$
$ SOLUTION    - 108
$
$ OUTPUT      - Pressure and Displacment
$
$                                                              
$*$$$$$$$$$$$$$$$$$$$$$$$$$$$$$$$$$$$$$$$$$$$$$$$$$$$$$$$$$$$$$$$$$
$*
$*$$$$$$$$$$$$$$$$$$$$$$$$$$$$$$$$$$$
$*
$* FILE MANAGEMENT
$*
$*$$$$$$$$$$$$$$$$$$$$$$$$$$$$$$$$$$$
$*
$*
$*$$$$$$$$$$$$$$$$$$$$$$$$$$$$$$$$$$$
$*
$* EXECUTIVE CONTROL
$*
$*$$$$$$$$$$$$$$$$$$$$$$$$$$$$$$$$$$$
$*
ID,NASTRAN,nastranSOL 108
CEND
$*
$*$$$$$$$$$$$$$$$$$$$$$$$$$$$$$$$$$$$
$*
$* CASE CONTROL
$*
$*$$$$$$$$$$$$$$$$$$$$$$$$$$$$$$$$$$$
$*
ECHO = NONE
SET 1=1,9,10,6000,6001
SPC=100
RANDOM(RMSSF=2.0)=10
DISPLACEMENT(SORT1,PHASE,PSDF,ATOC,CRMS,RMS) = 1
PRESSURE(SORT1,PHASE,PSDF,ATOC,CRMS,RMS) = 1
RCROSS(REAL,PRINT,PUNCH,RALL)=20
FREQUENCY = 101
SUBCASE 100
  DLOAD = 301
SUBCASE 200
  DLOAD = 302
$*
$*$$$$$$$$$$$$$$$$$$$$$$$$$$$$$$$$$$$
$*
$* BULK DATA
$*
$*$$$$$$$$$$$$$$$$$$$$$$$$$$$$$$$$$$$
$*
BEGIN BULK
$*
$* PARAM CARDS
$*
FREQ1        101  100.00  100.00      2
$*
PARAM          G     0.0
PARAM        GFL     0.0
PARAM      K6ROT   100.0
PARAM     OIBULK     YES
PARAM    OMACHPR     YES
PARAM       POST      -2
PARAM    POSTEXT     YES
PARAM     SPCSTR     YES
PARAM    UNITSYS   MN-MM
$*
RANDPS        10     100     200      2.      1.       1
TABRND1        1                                                                     
              0.    100.    300.    110.    ENDT              
RANDT1        10       4      0.    .004
RCROSS        20   PRESS    6000       1   PRESS    6000       1
$* GRID CARDS
$*
GRID           1       0     0.1      .5      .5       0
GRID           2       0     0.1     0.0      .5       0
GRID           3       0     0.1      .5     0.0       0
GRID           4       0     0.1      .5     1.0       0
GRID           5       0     0.1     1.0      .5       0
GRID           6       0     0.1     0.0     0.0       0
GRID           7       0     0.1     0.0     1.0       0
GRID           8       0     0.1     1.0     0.0       0
GRID           9       0     0.1     1.0     1.0       0
GRID          10       0      .6      .5      .5      -1
GRID          11       0     1.1      .5      .5      -1
GRID          12       0     1.6      .5      .5      -1
GRID          13       0     2.1      .5      .5      -1
GRID          14       0     2.6      .5      .5      -1
GRID          15       0     3.1      .5      .5      -1
GRID          16       0     3.6      .5      .5      -1
GRID          17       0     4.1      .5      .5      -1
GRID          18       0     4.6      .5      .5      -1
GRID          19       0     5.1      .5      .5      -1
GRID          20       0     5.6      .5      .5      -1
$ ... 178 like lines cut
$*
GRID        6000       0    10.5     0.5     0.5      -1
GRID        6001       0     10.     0.5     0.5      -1
MICPNT     60000    6000   MICROPONE POINT
MICPNT     60001    6001   MICROPONE POINT
$* ELEMENT CARDS
$*
$*  Units: mm (milli-newton) (deg Celsius)
$*  NX Region: Region1
$SURFS        ID                            EID1      G1      G2      G3
BSURFS         1                              24     190     198     189+
$           EID2      G1      G2      G3    EID3      G1      G2      G3
+             44     188     197     190      64     106     189     196+
$           EID4      G1      G2      G3
+             84     195     188     106
$*  NX Mesh Collector: ThinShell(1)
$*  NX Mesh: 2d_mesh(1)
CQUAD4         1       1       6       2       1       3
CQUAD4         2       1       2       7       4       1
CQUAD4         3       1       1       4       9       5
CQUAD4         4       1       3       1       5       8
$*  NX Mesh Collector: Acoustic Fluid(1)
$*  NX Mesh: 3d_mesh(1)
CHEXA          5       3     110     194     109      29     105     168+
+             68      10
CHEXA          6       3     105     168      68      10     104     169+
+             69      11
CHEXA          7       3     104     169      69      11     103     170+
+             70      12
CHEXA          8       3     103     170      70      12     102     171+
+             71      13
CHEXA          9       3     102     171      71      13     101     172+
+             72      14
CHEXA         10       3     101     172      72      14     100     173+
+             73      15
CHEXA         11       3     100     173      73      15      99     174+
+             74      16
CHEXA         12       3      99     174      74      16      98     175+
+             75      17
CHEXA         13       3      98     175      75      17      97     176+
+             76      18
CHEXA         14       3      97     176      76      18      96     177+
+             77      19
CHEXA         15       3      96     177      77      19      95     178+
+             78      20
CHEXA         16       3      95     178      78      20      94     179+
+             79      21
CHEXA         17       3      94     179      79      21      93     180+
+             80      22
CHEXA         18       3      93     180      80      22      92     181+
+             81      23
CHEXA         19       3      92     181      81      23      91     182+
+             82      24
CHEXA         20       3      91     182      82      24      90     183+
+             83      25
CHEXA         21       3      90     183      83      25      89     184+
+             84      26
CHEXA         22       3      89     184      84      26      88     185+
+             85      27
CHEXA         23       3      88     185      85      27      87     186+
+             86      28
CHEXA         24       3      87     186      86      28     190     198+
+            189     106
$ ... 120 like lines cut
$*
$* PROPERTY CARDS
$*
$*  NX Property: PSHELL1
PSHELL         1       10.001000       11.000000       10.833333  0.0000
MAT1           1 2.000+6        0.250000 7872.001.2600-5
$*  NX Property: PSOLID - Acoustic Fluid1
PSOLID         3       2                                  PFLUID
MAT10          2        1.2250-93.4000+5
$*
$* LOAD AND CONSTRAINT CARDS
$*
ACMODL      
+                                           WEAK
AMLREG         1       1Automatically Matched Layer(1)                  +
+            100          
$*  NX Load and Constraint: Enforced Motion(1)
RLOAD1         1       1                      1.      .5       1
RLOAD1         2       2                      1.     1.5       1
SPCD           2       1       1     1.0
SPC1           2       1       1
SPCD           2       2       1     1.0
SPC1           2       1       2
SPCD           2       3       1     1.0
SPC1           2       1       3
SPCD           2       4       1     1.0
SPC1           2       1       4
SPCD           2       9       1     1.0
SPC1           2       1       9
SPCD           1       5       1     1.0
SPC1           1       1       5
SPCD           1       6       1     1.0
SPC1           1       1       6
SPCD           1       7       1     1.0
SPC1           1       1       7
SPCD           1       8       1     1.0
SPC1           1       1       8
SPCD           1       9       1     1.0
SPC1           1       1       9
SPCADD       100       1       2
DLOAD        301     1.0     1.0       1
DLOAD        302     1.0     1.0       2
ENDDATA a41c0a96
