SET1       61001       1
SET1       61002       2
SET1       61003       3
SET1       61004       4

CORD2C         1       0      0.      0.      0.      0.      0.      1.+FEMAPC1
+FEMAPC1      1.      0.      1.
CORD2S         2       0      0.      0.      0.      0.      0.      1.+FEMAPC2
+FEMAPC2      1.      0.      1.
$ Femap Coordinate System 3 : Rectangular Coordinate System
CORD2R         3       0      0.      0.      0.      0.      0.      1.+
+             1.      0.      0.
$ Femap Coordinate System 10 : Rectangular Coordinate System
CORD2R        10       0      0.      0. -.01016      0.      0.  .98984+
+             1.      0. -.01016
$ Femap Coordinate System 11 : Rectangular Coordinate System
CORD2R        11       0.1017964      0. -.01016.1017964      0.  .98984+
+       1.101796      0. -.01016
$ Femap Coordinate System 12 : Rectangular Coordinate System
CORD2R        12       0.2801396      0. -.01016.2801396      0.  .98984+
+        1.28014      0. -.01016
$ Femap Coordinate System 13 : Rectangular Coordinate System
CORD2R        13       0.4572873      0. -.01016.4572873      0.  .98984+
+       1.457287      0. -.01016
$ Femap Coordinate System 14 : Rectangular Coordinate System
CORD2R        14       0.5162816      0. -.01016.5162816      0.  .98984+
+       1.516282      0. -.01016
$ Femap Coordinate System 15 : Rectangular Coordinate System
CORD2R        15       0.1078103-.066675-4.205-3.1078103-.066675 .995795+
+        1.10781-.066675-4.205-3
$ Femap Coordinate System 16 : Rectangular Coordinate System
CORD2R        16       0 .167051-.066675-4.205-3 .167051-.066675 .995795+
+       1.167051-.066675-4.205-3
$ Femap Coordinate System 17 : Rectangular Coordinate System
CORD2R        17       0.2831341-.066675-4.205-3.2831341-.066675 .995795+
+       1.283134-.066675-4.205-3
$ Femap Coordinate System 18 : Rectangular Coordinate System
CORD2R        18       0.3990953-.066675-4.205-3.3990953-.066675 .995795+
+       1.399095-.066675-4.205-3
$ Femap Coordinate System 19 : Rectangular Coordinate System
CORD2R        19       0.4694145-.066675-4.205-3.4694145-.066675 .995795+
+       1.469415-.066675-4.205-3
$ Femap Coordinate System 20 : Rectangular Coordinate System
CORD2R        20       0.1078103 .066675-4.205-3.1078103 .066675 .995795+
+        1.10781 .066675-4.205-3
$ Femap Coordinate System 21 : Rectangular Coordinate System
CORD2R        21       0 .167051 .066675-4.205-3 .167051 .066675 .995795+
+       1.167051 .066675-4.205-3
$ Femap Coordinate System 22 : Rectangular Coordinate System
CORD2R        22       0.2831341 .066675-4.205-3.2831341 .066675 .995795+
+       1.283134 .066675-4.205-3
$ Femap Coordinate System 23 : Rectangular Coordinate System
CORD2R        23       0.3990953 .066675-4.205-3.3990953 .066675 .995795+
+       1.399095 .066675-4.205-3
$ Femap Coordinate System 24 : Rectangular Coordinate System
CORD2R        24       0.4694145 .066675-4.205-3.4694145 .066675 .995795+
+       1.469415 .066675-4.205-3
$ Femap Coordinate System 25 : Rectangular Coordinate System
CORD2R        25       0.2156206 -.13335  .00175.2156206 -.13335 1.00175+
+       1.215621 -.13335  .00175
$ Femap Coordinate System 26 : Rectangular Coordinate System
CORD2R        26       0.2396871 -.13335  .00175.2396871 -.13335 1.00175+
+       1.239687 -.13335  .00175
$ Femap Coordinate System 27 : Rectangular Coordinate System
CORD2R        27       0 .286371 -.13335  .00175 .286371 -.13335 1.00175+
+       1.286371 -.13335  .00175
$ Femap Coordinate System 28 : Rectangular Coordinate System
CORD2R        28       0.3335852 -.13335  .00175.3335852 -.13335 1.00175+
+       1.333585 -.13335  .00175
$ ... 2316 like lines cut
AEROS          0       0     .23    2.15      .5       1       0
$	$ACSID	VELO 	REFC 	RHOREF 	SYMXZ	SYMXY
AERO           0     50.     .23      1.       1       0
$ Femap Property 7 : DOF SPRING Property
PELAS          7    1.+9      0.
$ Femap Property 8 : DOF SPRING Property
PELAS          8    1.+9      0.
$ Femap Property 9 : DOF SPRING Property
PELAS          9    1.+9      0.
$ Femap Property 10 : DOF SPRING Property
PELAS         10    1.+9      0.
$ Femap Property 11 : PLATE Property
PSHELL        11       4  .01016       2                              0.
$ Femap Property 12 : PLATE Property
PSHELL        12       4  .01016       2                              0.
$ Femap Property 13 : PLATE Property
PSHELL        13       4  .00254       2                              0.
$ Femap Property 14 : PLATE Property
PSHELL        14       4  .01016       2                              0.
$ Femap Property 15 : PLATE Property
PSHELL        15       4  .00254       2                              0.
$ Femap Property 16 : PLATE Property
PSHELL        16       4  .00254       2                              0.
$ Femap Property 17 : PLATE Property
PSHELL        17       5  .01016       2                              0.
$ Femap Property 18 : PLATE Property
PSHELL        18       5  .01016       2                              0.
$ Femap Property 19 : PLATE Property
PSHELL        19       5  .00254       2                              0.
$ Femap Property 20 : PLATE Property
PSHELL        20       5  .01016       2                              0.
$ Femap Property 21 : PLATE Property
PSHELL        21       5  .00254       2                              0.
$ Femap Property 22 : PLATE Property
PSHELL        22       5  .00254       2                              0.
$ Femap Property 23 : DOF SPRING Property
PELAS         23    1.+9      0.
$ Femap Property 101 : PLATE Property
PSHELL       101       2  .00508       2                              0.
$ Femap Property 102 : PLATE Property
PSHELL       102       2  .00254       2                              0.
$ Femap Property 103 : PLATE Property
PSHELL       103       2  .00635       2                              0.
$ Femap Property 104 : PLATE Property
PSHELL       104       2  .00254       2                              0.
$ Femap Property 110 : PLATE Property
PSHELL       110       2  .00254       2                              0.
$ Femap Property 111 : PLATE Property
PSHELL       111       2  .00254       2                              0.
$ Femap Property 112 : PLATE Property
PSHELL       112       2  .00254       2                              0.
$ Femap Property 113 : PLATE Property
PSHELL       113       2  .00254       2                              0.
$ Femap Property 114 : PLATE Property
PSHELL       114       2  .00254       2                              0.
$ Femap Property 115 : PLATE Property
PSHELL       115       2  .00254       2                              0.
$ Femap Property 116 : PLATE Property
PSHELL       116       2  .00254       2                              0.
$ Femap Property 117 : PLATE Property
PSHELL       117       2  .00254       2                              0.
$ Femap Property 130 : PLATE Property
PSHELL       130       2  .00254       2                              0.
$ Femap Property 131 : PLATE Property
PSHELL       131       2  .00254       2                              0.
$ Femap Property 132 : PLATE Property
PSHELL       132       2  .00254       2                              0.
$ Femap Property 133 : PLATE Property
PSHELL       133       2  .00254       2                              0.
$ Femap Property 134 : PLATE Property
PSHELL       134       2  .00254       2                              0.
$ Femap Property 135 : PLATE Property
PSHELL       135       2  .00254       2                              0.
$ Femap Property 136 : PLATE Property
PSHELL       136       2  .00254       2                              0.
$ Femap Property 138 : DOF SPRING Property
PELAS        138    1.+9      0.
$ Femap Material 2 : ISOTROPIC Material
MAT1           2  1.37+9  4.57+8.4989059   1180.      0.      0.
$ Femap Material 3 : ISOTROPIC Material
MAT1           31000000. 333000..5015015   1130.      0.      0.
$ Femap Material 4 : ISOTROPIC Material
MAT1           4  1.37+9  4.57+8.4989059   1180.      0.      0.
$ Femap Material 5 : ISOTROPIC Material
MAT1           5  1.37+9  4.57+8.4989059   1180.      0.      0.
GRID           1       0 .654361  1.0762  .01905       0
GRID           3       0 .654361  1.0762  .01905       0
GRID           5       0    .807  1.0762  .12097       0
GRID           6       0    .807  1.0762 -.08287       0
GRID      200001       0.82153141.074722  .17145       0
GRID      200002       0.83673671.071116  .17145       0
GRID      200003       0.85167381.072492  .17145       0
GRID      200004       0.85167381.076167  .17145       0
GRID      200007       0 .8066481.076201  .17145       0
GRID      200008       0.82160061.077388  .17145       0
GRID      200009       0.83678661.081365  .17145       0
GRID      200010       0.8516738 1.07991  .17145       0
GRID      200014       0.86547251.078948  .17145       0
GRID      200015       0.86546581.076201  .17145       0
GRID      200016       0.86547251.073454  .17145       0
GRID      200017       0 .8792521.077741  .17145       0
GRID      200018       0.87924441.076201  .17145       0
GRID      200019       0 .879252 1.07466  .17145       0
GRID      200020       0 .8930081.076291  .17145       0
GRID      200023       0.78788541.071851  .14097       0
$ ... 3249 like lines cut
RBE3           1               1  123456      1.  123456  301066  301068+
+         301057  301059  301048
RBE3           3               3  123456      1.  123456  200119  200121+
+         200131  200082  200075
RBE3           5               5  123456      1.  123456  200026  200032+
+         200025  200042
RBE3           6               6  123456      1.  123456  200165  200171+
+         200164  200181
CTRIA3    200001      17  200004  200008  200009     730
CTRIA3    200002      17  200004  200009  200010     730
CQUAD4    200003      17  200007  200001  200004  200008     730
CTRIA3    200004      17  200001  200004  200002     730
CTRIA3    200005      17  200002  200004  200003     730
CQUAD4    200006      17  200015  200016  200019  200018     731
CTRIA3    200007      17  200018  200020  200019     731
CQUAD4    200008      17  200010  200004  200015  200014     731
CQUAD4    200009      17  200004  200003  200016  200015     731
CQUAD4    200010      17  200014  200015  200018  200017     731
CTRIA3    200011      17  200017  200020  200018     731
CQUAD4    200012      20  200026  200027  200031  200030     732
CQUAD4    200013      20  200027  200028  200032  200031     732
CTRIA3    200014      20  200026  200030  200023     732
CQUAD4    200015      20  200023  200024  200027  200026     732
CQUAD4    200016      20  200024  200025  200028  200027     732
CQUAD4    200017      20  200037  200038  200041  200040     733
CTRIA3    200018      20  200040  200042  200041     733
CQUAD4    200019      20  200032  200028  200037  200036     733
CQUAD4    200020      20  200028  200025  200038  200037     733
CQUAD4    200021      20  200036  200037  200040  200039     733
CTRIA3    200022      20  200039  200042  200040     733
CTRIA3    200023      17  200051  200057  200056     734
CQUAD4    200024      17  200051  200052  200058  200057     734
CQUAD4    200025      17  200052  200053  200059  200058     734
CQUAD4    200026      17  200053  200054  200060  200059     734
CTRIA3    200027      17  200050  200056  200051     734
CTRIA3    200028      17  200051  200050  200045     734
CQUAD4    200029      17  200046  200047  200052  200051     734
CQUAD4    200030      17  200047  200048  200053  200052     734
CQUAD4    200031      17  200048  200049  200054  200053     734
CQUAD4    200032      17  200065  200066  200069  200068     735
CTRIA3    200033      17  200068  200070  200069     735
CQUAD4    200034      17  200060  200054  200065  200064     735
CQUAD4    200035      17  200054  200049  200066  200065     735
CQUAD4    200036      17  200064  200065  200068  200067     735
CTRIA3    200037      17  200067  200070  200068     735
CTRIA3    200038      17  200076  200077  200081     736
CQUAD4    200039      17  200077  200076  200082  200081     736
CQUAD4    200040      17  200079  200073  200076  200080     736
CTRIA3    200041      17  200076  200073  200074     736
CQUAD4    200042      17  200074  200075  200076  200077     736
CQUAD4    200043      17  200087  200088  200091  200090     737
CQUAD4    200044      17  200082  200076  200087  200086     737
CQUAD4    200045      17  200076  200075  200088  200087     737
CQUAD4    200046      17  200086  200087  200090  200089     737
CQUAD4    200047      17  200096  200097  200100  200099     738
CQUAD4    200048      17  200089  200090  200096  200095     738
CQUAD4    200049      17  200090  200091  200097  200096     738
CQUAD4    200050      17  200095  200096  200099  200098     738
CQUAD4    200051      17  200105  200106  200109  200108     739
CQUAD4    200052      17  200098  200099  200105  200104     739
CQUAD4    200053      17  200099  200100  200106  200105     739
CQUAD4    200054      17  200104  200105  200108  200107     739
CQUAD4    200055      17  200114  200115  200118  200117     740
CQUAD4    200056      17  200117  200118  200121  200120     740
CQUAD4    200057      17  200107  200108  200114  200113     740
CQUAD4    200058      17  200108  200109  200115  200114     740
CQUAD4    200059      17  200113  200114  200117  200116     740
CQUAD4    200060      17  200116  200117  200120  200119     740
CQUAD4    200061      17  200126  200127  200130  200129     741
CTRIA3    200062      17  200129  200131  200130     741
CQUAD4    200063      17  200119  200120  200126  200125     741
CQUAD4    200064      17  200120  200121  200127  200126     741
CQUAD4    200065      17  200125  200126  200129  200128     741
CTRIA3    200066      17  200128  200131  200129     741
CTRIA3    200067      17  200140  200146  200145     742
CQUAD4    200068      17  200140  200141  200147  200146     742
CQUAD4    200069      17  200141  200142  200148  200147     742
CQUAD4    200070      17  200142  200143  200149  200148     742
CTRIA3    200071      17  200139  200145  200140     742
CTRIA3    200072      17  200140  200139  200134     742
CQUAD4    200073      17  200135  200136  200141  200140     742
CQUAD4    200074      17  200136  200137  200142  200141     742
CQUAD4    200075      17  200137  200138  200143  200142     742
CQUAD4    200076      17  200154  200155  200158  200157     743
CTRIA3    200077      17  200157  200159  200158     743
CQUAD4    200078      17  200149  200143  200154  200153     743
CQUAD4    200079      17  200143  200138  200155  200154     743
CQUAD4    200080      17  200153  200154  200157  200156     743
CTRIA3    200081      17  200156  200159  200157     743
CQUAD4    200082      20  200165  200166  200170  200169     744
CQUAD4    200083      20  200166  200167  200171  200170     744
CTRIA3    200084      20  200165  200169  200162     744
CQUAD4    200085      20  200162  200163  200166  200165     744
CQUAD4    200086      20  200163  200164  200167  200166     744
CQUAD4    200087      20  200176  200177  200180  200179     745
CTRIA3    200088      20  200179  200181  200180     745
CQUAD4    200089      20  200171  200167  200176  200175     745
CQUAD4    200090      20  200167  200164  200177  200176     745
CQUAD4    200091      20  200175  200176  200179  200178     745
CTRIA3    200092      20  200178  200181  200179     745
CQUAD4    200093      17  200187  200188  200192  200191     746
CQUAD4    200094      17  200188  200189  200193  200192     746
CQUAD4    200095      17  200190  200184  200187  200191     746
CQUAD4    200096      17  200184  200185  200188  200187     746
CQUAD4    200097      17  200185  200186  200189  200188     746
CQUAD4    200098      17  200198  200199  200202  200200     747
CTRIA3    200099      17  200200  200203  200202     747
CQUAD4    200100      17  200193  200189  200198  200197     747
CQUAD4    200101      17  200189  200186  200199  200198     747
CTRIA3    200102      17  200197  200200  200198     747
CQUAD4    200104      18  200210  200211  200214  200213     748
CQUAD4    200105      18  200213  200214  200025  200028     748
CQUAD4    200106      18  200010  200004  200210  200209     748
CQUAD4    200107      18  200004  200003  200211  200210     748
CQUAD4    200108      18  200209  200210  200213  200212     748
CQUAD4    200109      18  200212  200213  200028  200032     748
CQUAD4    200110      18  200222  200223  200226  200225     749
CQUAD4    200111      18  200225  200226  200229  200228     749
CQUAD4    200112      18  200228  200229  200232  200231     749
CQUAD4    200113      18  200231  200232  200049  200054     749
CQUAD4    200114      18  200032  200028  200222  200221     749
CQUAD4    200115      18  200028  200025  200223  200222     749
CQUAD4    200116      18  200221  200222  200225  200224     749
CQUAD4    200117      18  200224  200225  200228  200227     749
CQUAD4    200118      18  200227  200228  200231  200230     749
CQUAD4    200119      18  200230  200231  200054  200060     749
CQUAD4    200120      18  200240  200241  200244  200243     750
CQUAD4    200121      18  200243  200244  200247  200246     750
CQUAD4    200122      18  200246  200247  200121  200120     750
CQUAD4    200123      18  200060  200054  200240  200239     750
$ ... 34 like lines cut
CTRIA3    200158      18  200090  200315  200089     756
CQUAD4    200159      18  200314  200310  200090  200315     756
CTRIA3    200160      18  200310  200090  200091     756
CQUAD4    200161      18  200090  200320  200323  200322     757
CTRIA3    200162      18  200089  200322  200090     757
CTRIA3    200163      18  200090  200320  200091     757
CTRIA3    200164      18  200099  200331  200332     758
CTRIA3    200165      18  200099  200332  200098     758
CQUAD4    200166      18  200330  200324  200099  200331     758
CTRIA3    200167      18  200324  200099  200325     758
CTRIA3    200168      18  200325  200099  200100     758
CTRIA3    200169      18  200099  200339  200337     759
CQUAD4    200170      18  200099  200339  200343  200342     759
CTRIA3    200171      18  200098  200341  200099     759
CTRIA3    200172      18  200341  200342  200099     759
CTRIA3    200173      18  200099  200337  200100     759
CQUAD4    200174      19  200348  200306  200075  200088     760
CQUAD4    200175      19  200323  200347  200348  200320     760
CQUAD4    200176      19  200320  200348  200088  200091     760
CQUAD4    200177      19  200347  200309  200306  200348     760
CQUAD4    200178      19  200357  200086  200082  200308     761
CQUAD4    200179      19  200323  200322  200357  200347     761
CQUAD4    200180      19  200322  200089  200086  200357     761
CQUAD4    200181      19  200347  200357  200308  200309     761
CQUAD4    200182      19  200366  200296  200300  200367     762
CQUAD4    200183      19  200091  200088  200366  200310     762
CQUAD4    200184      19  200310  200366  200367  200314     762
CQUAD4    200185      19  200088  200075  200296  200366     762
CQUAD4    200186      19  200375  200367  200300  200301     763
CQUAD4    200187      19  200089  200315  200375  200086     763
CQUAD4    200188      19  200315  200314  200367  200375     763
CQUAD4    200189      19  200086  200375  200301  200082     763
CQUAD4    200190      19  200383  200323  200320  200384     764
CQUAD4    200191      19  200384  200320  200091  200097     764
CQUAD4    200192      19  200343  200387  200383  200339     764
CTRIA3    200193      19  200387  200323  200383     764
CQUAD4    200194      19  200339  200383  200384  200337     764
CQUAD4    200195      19  200337  200384  200097  200100     764
CQUAD4    200196      19  200394  200395  200322  200323     765
CQUAD4    200197      19  200395  200095  200089  200322     765
CQUAD4    200198      19  200343  200342  200394  200387     765
CTRIA3    200199      19  200387  200394  200323     765
CQUAD4    200200      19  200342  200341  200395  200394     765
CQUAD4    200201      19  200341  200098  200095  200395     765
CQUAD4    200202      19  200405  200091  200310  200406     766
CQUAD4    200203      19  200406  200310  200314  200407     766
CQUAD4    200204      19  200100  200097  200405  200325     766
CTRIA3    200205      19  200097  200091  200405     766
CQUAD4    200206      19  200325  200405  200406  200324     766
CQUAD4    200207      19  200324  200406  200407  200330     766
CQUAD4    200208      19  200416  200417  200315  200089     767
CQUAD4    200209      19  200417  200407  200314  200315     767
CQUAD4    200210      19  200098  200332  200416  200095     767
CTRIA3    200211      19  200095  200416  200089     767
CQUAD4    200212      19  200332  200331  200417  200416     767
CQUAD4    200213      19  200331  200330  200407  200417     767
CQUAD4    200214      19  200429  200339  200337  200430     768
CQUAD4    200215      19  200430  200337  200100  200106     768
CQUAD4    200216      19  200140  200428  200429  200425     768
CQUAD4    200217      19  200425  200429  200430  200426     768
CQUAD4    200218      19  200426  200430  200106  200109     768
CQUAD4    200219      19  200428  200343  200339  200429     768
CQUAD4    200220      19  200441  200442  200341  200342     769
CQUAD4    200221      19  200442  200104  200098  200341     769
CQUAD4    200222      19  200140  200437  200441  200428     769
CQUAD4    200223      19  200437  200438  200442  200441     769
CQUAD4    200224      19  200438  200107  200104  200442     769
CQUAD4    200225      19  200428  200441  200342  200343     769
CQUAD4    200226      19  200453  200325  200324  200454     770
CQUAD4    200227      19  200454  200324  200330  200455     770
CQUAD4    200228      19  200109  200106  200453  200449     770
CQUAD4    200229      19  200449  200453  200454  200450     770
CQUAD4    200230      19  200450  200454  200455  200051     770
CQUAD4    200231      19  200106  200100  200325  200453     770
$ ... 13 like lines cut
CTRIA3    200245      19  200489  200490  200480     772
CQUAD4    200246      19  200490  200109  200115  200491     772
CQUAD4    200247      19  200491  200115  200118  200492     772
CQUAD4    200248      19  200492  200118  200121  200256     772
CQUAD4    200249      19  200140  200425  200487  200134     772
CQUAD4    200250      19  200134  200487  200476  200135     772
CQUAD4    200251      19  200425  200426  200489  200487     772
CQUAD4    200252      19  200426  200109  200490  200489     772
CQUAD4    200253      19  200135  200476  200477  200136     772
CQUAD4    200254      19  200136  200477  200478  200137     772
CQUAD4    200255      19  200137  200478  200262  200138     772
CQUAD4    200256      19  200502  200503  200507  200506     773
CQUAD4    200257      19  200503  200504  200508  200507     773
CQUAD4    200258      19  200504  200260  200257  200508     773
CQUAD4    200259      19  200506  200507  200517  200516     773
CQUAD4    200260      19  200507  200508  200518  200517     773
CQUAD4    200261      19  200508  200257  200254  200518     773
CQUAD4    200262      19  200513  200502  200506  200515     773
CTRIA3    200263      19  200515  200506  200516     773
CQUAD4    200264      19  200516  200517  200113  200107     773
CQUAD4    200265      19  200517  200518  200116  200113     773
CQUAD4    200266      19  200518  200254  200119  200116     773
CQUAD4    200267      19  200140  200145  200513  200437     773
CQUAD4    200268      19  200145  200146  200502  200513     773
CQUAD4    200269      19  200437  200513  200515  200438     773
CQUAD4    200270      19  200438  200515  200516  200107     773
CQUAD4    200271      19  200146  200147  200503  200502     773
CQUAD4    200272      19  200147  200148  200504  200503     773
CQUAD4    200273      19  200148  200149  200260  200504     773
CQUAD4    200274      19  200527  200530  200531  200528     774
CQUAD4    200275      19  200528  200531  200047  200048     774
CQUAD4    200276      19  200530  200533  200534  200531     774
CQUAD4    200277      19  200531  200534  200046  200047     774
CQUAD4    200278      19  200533  200544  200545  200534     774
CQUAD4    200279      19  200534  200545  200045  200046     774
CQUAD4    200280      19  200539  200541  200530  200527     774
CQUAD4    200281      19  200541  200543  200533  200530     774
CTRIA3    200282      19  200543  200544  200533     774
CQUAD4    200283      19  200544  200449  200450  200545     774
CQUAD4    200284      19  200545  200450  200051  200045     774
CQUAD4    200285      19  200121  200118  200539  200247     774
CQUAD4    200286      19  200247  200539  200527  200244     774
CQUAD4    200287      19  200118  200115  200541  200539     774
CQUAD4    200288      19  200115  200109  200543  200541     774
CQUAD4    200289      19  200109  200449  200544  200543     774
CQUAD4    200290      19  200244  200527  200528  200241     774
CQUAD4    200291      19  200241  200528  200048  200049     774
CQUAD4    200292      19  200553  200554  200557  200556     775
CQUAD4    200293      19  200554  200059  200058  200557     775
CQUAD4    200294      19  200556  200557  200560  200559     775
CQUAD4    200295      19  200557  200058  200057  200560     775
CQUAD4    200296      19  200559  200560  200571  200570     775
CQUAD4    200297      19  200560  200057  200056  200571     775
CQUAD4    200298      19  200565  200553  200556  200567     775
CQUAD4    200299      19  200567  200556  200559  200569     775
CTRIA3    200300      19  200569  200559  200570     775
CQUAD4    200301      19  200570  200571  200462  200461     775
CQUAD4    200302      19  200571  200056  200051  200462     775
CQUAD4    200303      19  200119  200245  200565  200116     775
CQUAD4    200304      19  200245  200242  200553  200565     775
CQUAD4    200305      19  200116  200565  200567  200113     775
CQUAD4    200306      19  200113  200567  200569  200107     775
CQUAD4    200307      19  200107  200569  200570  200461     775
CQUAD4    200308      19  200242  200239  200554  200553     775
CQUAD4    200309      19  200239  200060  200059  200554     775
CQUAD4    200310      19  200582  200587  200588  200583     776
CQUAD4    200311      19  200583  200588  200589  200584     776
CQUAD4    200312      19  200584  200589  200127  200130     776
CQUAD4    200313      19  200587  200262  200259  200588     776
CQUAD4    200314      19  200588  200259  200256  200589     776
CQUAD4    200315      19  200589  200256  200121  200127     776
CQUAD4    200316      19  200159  200158  200582  200577     776
CQUAD4    200317      19  200577  200582  200583  200578     776
CQUAD4    200318      19  200578  200583  200584  200579     776
CQUAD4    200319      19  200579  200584  200130  200131     776
CQUAD4    200320      19  200158  200155  200587  200582     776
$ ... 51 like lines cut
CTRIA3    200372      19  200683  200684  200671     780
CQUAD4    200373      19  200684  200223  200226  200685     780
CQUAD4    200374      19  200685  200226  200229  200686     780
CQUAD4    200375      19  200686  200229  200232  200687     780
CQUAD4    200376      19  200687  200232  200049  200048     780
CQUAD4    200377      19  200026  200023  200679  200677     780
CQUAD4    200378      19  200677  200679  200661  200656     780
CQUAD4    200379      19  200023  200024  200681  200679     780
CQUAD4    200380      19  200024  200025  200683  200681     780
CQUAD4    200381      19  200025  200223  200684  200683     780
CQUAD4    200382      19  200656  200661  200662  200657     780
CQUAD4    200383      19  200657  200662  200663  200658     780
CQUAD4    200384      19  200658  200663  200664  200659     780
CQUAD4    200385      19  200659  200664  200045  200051     780
CQUAD4    200386      19  200699  200700  200705  200704     781
CQUAD4    200387      19  200700  200701  200706  200705     781
CQUAD4    200388      19  200701  200702  200707  200706     781
CQUAD4    200389      19  200702  200056  200057  200707     781
CQUAD4    200390      19  200704  200705  200710  200709     781
CQUAD4    200391      19  200705  200706  200711  200710     781
CQUAD4    200392      19  200706  200707  200712  200711     781
$ ... 7 like lines cut
CTRIA3    200400      19  200721  200709  200722     781
CQUAD4    200401      19  200722  200723  200224  200221     781
CQUAD4    200402      19  200723  200724  200227  200224     781
CQUAD4    200403      19  200724  200725  200230  200227     781
CQUAD4    200404      19  200725  200059  200060  200230     781
CQUAD4    200405      19  200026  200677  200717  200030     781
CQUAD4    200406      19  200677  200656  200699  200717     781
CQUAD4    200407      19  200030  200717  200719  200031     781
CQUAD4    200408      19  200031  200719  200721  200032     781
CQUAD4    200409      19  200032  200721  200722  200221     781
CQUAD4    200410      19  200656  200657  200700  200699     781
CQUAD4    200411      19  200657  200658  200701  200700     781
CQUAD4    200412      19  200658  200659  200702  200701     781
CQUAD4    200413      19  200659  200051  200056  200702     781
CQUAD4    200414      19  200739  200745  200746  200740     782
CQUAD4    200415      19  200740  200746  200747  200741     782
CQUAD4    200416      19  200741  200747  200748  200742     782
CQUAD4    200417      19  200742  200748  200038  200041     782
CQUAD4    200418      19  200745  200232  200229  200746     782
CQUAD4    200419      19  200746  200229  200226  200747     782
CQUAD4    200420      19  200747  200226  200223  200748     782
$ ... 38 like lines cut
CTRIA3    200459      19  200809  200810  200796     784
CQUAD4    200460      19  200810  200164  200163  200811     784
CQUAD4    200461      19  200811  200163  200162  200812     784
CQUAD4    200462      19  200812  200162  200165  200813     784
CQUAD4    200463      19  200138  200271  200803  200137     784
CQUAD4    200464      19  200137  200803  200784  200136     784
CQUAD4    200465      19  200271  200274  200805  200803     784
CQUAD4    200466      19  200274  200277  200807  200805     784
CQUAD4    200467      19  200277  200280  200809  200807     784
CQUAD4    200468      19  200280  200164  200810  200809     784
CQUAD4    200469      19  200136  200784  200785  200135     784
CQUAD4    200470      19  200135  200785  200786  200134     784
CQUAD4    200471      19  200134  200786  200787  200140     784
CQUAD4    200472      19  200822  200823  200827  200826     785
CQUAD4    200473      19  200823  200824  200828  200827     785
CQUAD4    200474      19  200824  200787  200791  200828     785
CQUAD4    200475      19  200826  200827  200831  200830     785
CQUAD4    200476      19  200827  200828  200832  200831     785
CQUAD4    200477      19  200828  200791  200795  200832     785
CQUAD4    200478      19  200830  200831  200835  200834     785
CQUAD4    200479      19  200831  200832  200836  200835     785
$ ... 7 like lines cut
CTRIA3    200487      19  200847  200834  200848     785
CQUAD4    200488      19  200848  200849  200170  200171     785
CQUAD4    200489      19  200849  200850  200169  200170     785
CQUAD4    200490      19  200850  200813  200165  200169     785
CQUAD4    200491      19  200149  200148  200841  200269     785
CQUAD4    200492      19  200148  200147  200822  200841     785
CQUAD4    200493      19  200269  200841  200843  200272     785
CQUAD4    200494      19  200272  200843  200845  200275     785
CQUAD4    200495      19  200275  200845  200847  200278     785
CQUAD4    200496      19  200278  200847  200848  200171     785
CQUAD4    200497      19  200147  200146  200823  200822     785
CQUAD4    200498      19  200146  200145  200824  200823     785
CQUAD4    200499      19  200145  200140  200787  200824     785
CQUAD4    200500      19  200863  200869  200870  200864     786
CQUAD4    200501      19  200864  200870  200871  200865     786
CQUAD4    200502      19  200865  200871  200872  200866     786
CQUAD4    200503      19  200866  200872  200155  200158     786
CQUAD4    200504      19  200869  200280  200277  200870     786
CQUAD4    200505      19  200870  200277  200274  200871     786
CQUAD4    200506      19  200871  200274  200271  200872     786
CQUAD4    200507      19  200872  200271  200138  200155     786
$ ... 46 like lines cut
CTRIA3    200554      19  200042  200041  200942     790
CQUAD4    200555      19  200019  200939  200940  200016     790
CQUAD4    200556      19  200016  200940  200211  200003     790
CQUAD4    200557      19  200954  200955  200958  200957     791
CQUAD4    200558      19  200955  200209  200212  200958     791
CQUAD4    200559      19  200957  200958  200036  200039     791
CQUAD4    200560      19  200958  200212  200032  200036     791
CQUAD4    200561      19  200020  200017  200954  200946     791
CQUAD4    200562      19  200946  200954  200957  200042     791
CTRIA3    200563      19  200042  200957  200039     791
CQUAD4    200564      19  200017  200014  200955  200954     791
CQUAD4    200565      19  200014  200010  200209  200955     791
CQUAD4    200566      19  200971  200975  200976  200972     792
CQUAD4    200567      19  200972  200976  200162  200163     792
CQUAD4    200568      19  200975  200979  200980  200976     792
CQUAD4    200569      19  200976  200980  200165  200162     792
CQUAD4    200570      19  200186  200185  200971  200292     792
CQUAD4    200571      19  200292  200971  200972  200289     792
CQUAD4    200572      19  200289  200972  200163  200164     792
CQUAD4    200573      19  200185  200184  200975  200971     792
CQUAD4    200574      19  200184  200190  200979  200975     792
CQUAD4    200575      19  200987  200988  200992  200991     793
CQUAD4    200576      19  200988  200170  200169  200992     793
CQUAD4    200577      19  200991  200992  200980  200979     793
CQUAD4    200578      19  200992  200169  200165  200980     793
CQUAD4    200579      19  200193  200290  200987  200986     793
CQUAD4    200580      19  200290  200287  200988  200987     793
CQUAD4    200581      19  200287  200171  200170  200988     793
CQUAD4    200582      19  200986  200987  200991  200990     793
CQUAD4    200583      19  200990  200991  200979  200190     793
$ ... 6 like lines cut
CTRIA3    200590      19  200203  200202  201004     794
CQUAD4    200591      19  200180  201001  201002  200177     794
CQUAD4    200592      19  200177  201002  200289  200164     794
CQUAD4    200593      19  201016  201017  201020  201019     795
CQUAD4    200594      19  201017  200287  200290  201020     795
CQUAD4    200595      19  201019  201020  201026  201025     795
CQUAD4    200596      19  201020  200290  200193  201026     795
CQUAD4    200597      19  200181  200178  201016  201008     795
CQUAD4    200598      19  201008  201016  201019  200203     795
CTRIA3    200599      19  200203  201019  201025     795
CQUAD4    200600      19  200178  200175  201017  201016     795
CQUAD4    200601      19  200175  200171  200287  201017     795
CQUAD4    200602      22  201030  201035  201036  201031     796
CQUAD4    200603      22  200075  200306  201035  200074     796
CQUAD4    200604      22  200074  201035  201030  200073     796
CQUAD4    200605      22  200306  200309  201036  201035     796
CQUAD4    200606      22  200073  201030  201031  200079     796
CQUAD4    200607      22  201040  201031  201036  201045     797
CQUAD4    200608      22  200082  200081  201045  200308     797
CQUAD4    200609      22  200081  200080  201040  201045     797
CQUAD4    200610      22  200308  201045  201036  200309     797
CQUAD4    200611      22  200080  200079  201031  201040     797
CQUAD4    200612      22  201050  201055  200074  200073     798
CQUAD4    200613      22  200300  200296  201055  201053     798
CQUAD4    200614      22  201053  201055  201050  201048     798
CQUAD4    200615      22  200296  200075  200074  201055     798
CQUAD4    200616      22  201048  201050  200073  200079     798
CQUAD4    200617      22  201060  200080  200081  201065     799
CQUAD4    200618      22  200300  201053  201065  200301     799
CQUAD4    200619      22  201053  201048  201060  201065     799
$ ... 11 like lines cut
CTRIA3    300010     101  300021  300022  300009      10
CQUAD4    300011     101  300022  300023  300027  300026      10
CQUAD4    300012     101  300023  300024  300028  300027      10
CQUAD4    300013     101  300024  300025  300029  300028      10
CQUAD4    300014     101  300026  300027  300031  300030      10
CQUAD4    300015     101  300027  300028  300032  300031      10
CQUAD4    300016     101  300028  300029  300033  300032      10
CQUAD4    300017     101  300013  300014  300017  300016      10
CQUAD4    300018     101  300014  300015  300018  300017      10
CQUAD4    300019     101  300015  300001  300005  300018      10
CQUAD4    300020     101  300016  300017  300020  300019      10
CQUAD4    300021     101  300019  300020  300026  300030      10
CQUAD4    300022     101  300001  300002  300006  300005      10
CQUAD4    300023     101  300002  300003  300007  300006      10
CQUAD4    300024     101  300003  300004  300008  300007      10
CQUAD4    300025     101  300041  300042  300048  300047      11
CQUAD4    300026     101  300042  300043  300049  300048      11
CQUAD4    300027     101  300043  300044  300050  300049      11
CQUAD4    300028     101  300044  300045  300051  300050      11
CQUAD4    300029     101  300047  300048  300054  300053      11
CQUAD4    300030     101  300048  300049  300055  300054      11
$ ... 89 like lines cut
CTRIA3    300120     101  300163  300164  300158      13
CQUAD4    300121     101  300149  300150  300156  300155      13
CQUAD4    300122     101  300150  300151  300157  300156      13
CQUAD4    300123     101  300171  300172  300175  300174      14
CQUAD4    300124     101  300174  300175  300178  300177      14
CQUAD4    300125     101  300164  300165  300171  300170      14
CQUAD4    300126     101  300165  300166  300172  300171      14
CQUAD4    300127     101  300170  300171  300174  300173      14
CQUAD4    300128     101  300173  300174  300177  300176      14
CQUAD4    300209     101  300304  300305  300308  300307      20
CQUAD4    300210     101  300305  300306  300309  300308      20
CQUAD4    300211     101  300307  300308  300316  300315      20
CQUAD4    300212     101  300308  300309  300317  300316      20
CQUAD4    300213     101  300313  300304  300307  300315      20
CQUAD4    300214     101  300316  300317  300319  300318      20
CQUAD4    300215     101  300310  300311  300313  300312      20
CQUAD4    300216     101  300311  300301  300304  300313      20
CQUAD4    300217     101  300312  300313  300315  300314      20
CQUAD4    300218     101  300314  300315  300316  300318      20
CQUAD4    300219     101  300301  300302  300305  300304      20
CQUAD4    300220     101  300302  300303  300306  300305      20
$ ... 44 like lines cut
CTRIA3    300265     101  300384  300385  300375      22
CQUAD4    300266     101  300351  300352  300360  300359      22
CQUAD4    300267     101  300352  300353  300361  300360      22
CQUAD4    300268     101  300353  300354  300362  300361      22
CQUAD4    300269     101  300392  300393  300396  300395      23
CQUAD4    300270     101  300393  300394  300397  300396      23
CQUAD4    300271     101  300395  300396  300399  300398      23
CQUAD4    300272     101  300396  300397  300400  300399      23
CQUAD4    300273     101  300398  300399  300406  300405      23
CQUAD4    300274     101  300399  300400  300407  300406      23
CQUAD4    300275     101  300385  300386  300392  300402      23
CQUAD4    300276     101  300402  300392  300395  300403      23
CQUAD4    300277     101  300403  300395  300398  300404      23
CTRIA3    300278     101  300404  300405  300398      23
CQUAD4    300279     101  300386  300387  300393  300392      23
CQUAD4    300280     101  300387  300388  300394  300393      23
CQUAD4    300281     101  300412  300413  300416  300415      24
CQUAD4    300282     101  300415  300416  300419  300418      24
CQUAD4    300283     101  300418  300419  300422  300420      24
CQUAD4    300284     101  300405  300406  300412  300411      24
CQUAD4    300285     101  300406  300407  300413  300412      24
CQUAD4    300286     101  300411  300412  300415  300414      24
CQUAD4    300287     101  300414  300415  300418  300417      24
CTRIA3    300288     101  300417  300420  300418      24
CQUAD4    300336     101  300505  300506  300509  300508      30
CQUAD4    300337     101  300507  300503  300505  300508      30
CQUAD4    300338     101  300503  300504  300506  300505      30
CQUAD4    300339     101  300513  300514  300517  300516      31
CQUAD4    300340     101  300514  300515  300518  300517      31
CQUAD4    300341     101  300516  300517  300523  300522      31
CQUAD4    300342     101  300517  300518  300524  300523      31
CQUAD4    300343     101  300504  300510  300513  300506      31
CQUAD4    300344     101  300506  300513  300516  300509      31
CTRIA3    300345     101  300509  300522  300516      31
CQUAD4    300346     101  300510  300511  300514  300513      31
CQUAD4    300347     101  300511  300512  300515  300514      31
CQUAD4    300348     101  300530  300531  300535  300534      32
CQUAD4    300349     101  300531  300532  300536  300535      32
CQUAD4    300350     101  300534  300535  300539  300538      32
CQUAD4    300351     101  300535  300536  300540  300539      32
CQUAD4    300352     101  300524  300518  300530  300529      32
CQUAD4    300353     101  300518  300515  300531  300530      32
CQUAD4    300354     101  300515  300512  300532  300531      32
CQUAD4    300355     101  300529  300530  300534  300533      32
CQUAD4    300356     101  300533  300534  300538  300537      32
CQUAD4    300357     101  300544  300545  300548  300547      33
CQUAD4    300358     101  300545  300546  300549  300548      33
CQUAD4    300359     101  300547  300548  300551  300550      33
CQUAD4    300360     101  300548  300549  300552  300551      33
CQUAD4    300361     101  300550  300551  300554  300553      33
CQUAD4    300362     101  300551  300552  300555  300554      33
CQUAD4    300363     101  300553  300554  300557  300556      33
CQUAD4    300364     101  300554  300555  300558  300557      33
CQUAD4    300365     101  300556  300557  300566  300565      33
$ ... 6 like lines cut
CTRIA3    300372     101  300564  300565  300556      33
CQUAD4    300373     101  300538  300539  300545  300544      33
CQUAD4    300374     101  300539  300540  300546  300545      33
CQUAD4    300375     101  300572  300573  300576  300575      34
CQUAD4    300376     101  300575  300576  300579  300578      34
CQUAD4    300377     101  300578  300579  300582  300580      34
CQUAD4    300378     101  300565  300566  300572  300571      34
CQUAD4    300379     101  300566  300567  300573  300572      34
CQUAD4    300380     101  300571  300572  300575  300574      34
CQUAD4    300381     101  300574  300575  300578  300577      34
CTRIA3    300382     101  300577  300580  300578      34
CQUAD4    300410     101  300640  300641  300644  300643      40
CQUAD4    300411     101  300642  300638  300640  300643      40
CQUAD4    300412     101  300638  300639  300641  300640      40
CQUAD4    300413     101  300649  300650  300653  300652      41
CQUAD4    300414     101  300644  300641  300649  300648      41
CQUAD4    300415     101  300641  300639  300650  300649      41
CQUAD4    300416     101  300648  300649  300652  300651      41
CQUAD4    300417     101  300658  300659  300662  300661      42
CQUAD4    300418     101  300651  300652  300658  300657      42
CQUAD4    300419     101  300652  300653  300659  300658      42
CQUAD4    300420     101  300657  300658  300661  300660      42
CQUAD4    300421     101  300667  300668  300671  300670      43
CQUAD4    300422     101  300670  300671  300674  300673      43
CQUAD4    300423     101  300673  300674  300677  300676      43
CQUAD4    300424     101  300676  300677  300680  300679      43
CQUAD4    300425     101  300660  300661  300667  300666      43
CQUAD4    300426     101  300661  300662  300668  300667      43
CQUAD4    300427     101  300666  300667  300670  300669      43
CQUAD4    300428     101  300669  300670  300673  300672      43
CQUAD4    300429     101  300672  300673  300676  300675      43
CQUAD4    300430     101  300675  300676  300679  300678      43
CQUAD4    300431     101  300685  300686  300689  300688      44
CTRIA3    300432     101  300688  300690  300689      44
CQUAD4    300433     101  300678  300679  300685  300684      44
CQUAD4    300434     101  300679  300680  300686  300685      44
CQUAD4    300435     101  300684  300685  300688  300687      44
CTRIA3    300436     101  300687  300690  300688      44
CQUAD4    300458     101  300741  300742  300745  300744      50
CQUAD4    300459     101  300743  300739  300741  300744      50
CQUAD4    300460     101  300739  300740  300742  300741      50
CQUAD4    300461     101  300750  300751  300754  300753      51
CQUAD4    300462     101  300745  300742  300750  300749      51
CQUAD4    300463     101  300742  300740  300751  300750      51
CQUAD4    300464     101  300749  300750  300753  300752      51
CQUAD4    300465     101  300759  300760  300763  300762      52
CQUAD4    300466     101  300752  300753  300759  300758      52
CQUAD4    300467     101  300753  300754  300760  300759      52
CQUAD4    300468     101  300758  300759  300762  300761      52
CQUAD4    300469     101  300768  300769  300772  300771      53
CQUAD4    300470     101  300771  300772  300775  300774      53
CQUAD4    300471     101  300761  300762  300768  300767      53
CQUAD4    300472     101  300762  300763  300769  300768      53
CQUAD4    300473     101  300767  300768  300771  300770      53
CQUAD4    300474     101  300770  300771  300774  300773      53
CTRIA3    300475     101  300780  300782  300781      54
CQUAD4    300476     101  300773  300774  300780  300779      54
CQUAD4    300477     101  300774  300775  300781  300780      54
CTRIA3    300478     101  300779  300782  300780      54
CQUAD4    300496     101  300824  300825  300828  300827      59
CQUAD4    300497     101  300826  300822  300824  300827      59
CQUAD4    300498     101  300822  300823  300825  300824      59
CQUAD4    300499     101  300833  300834  300837  300836      60
CQUAD4    300500     101  300828  300825  300833  300832      60
CQUAD4    300501     101  300825  300823  300834  300833      60
CQUAD4    300502     101  300832  300833  300836  300835      60
CQUAD4    300503     101  300842  300843  300846  300845      61
CQUAD4    300504     101  300835  300836  300842  300841      61
CQUAD4    300505     101  300836  300837  300843  300842      61
CQUAD4    300506     101  300841  300842  300845  300844      61
CQUAD4    300507     101  300851  300852  300855  300854      62
CQUAD4    300508     101  300854  300855  300858  300857      62
CQUAD4    300509     101  300844  300845  300851  300850      62
CQUAD4    300510     101  300845  300846  300852  300851      62
CQUAD4    300511     101  300850  300851  300854  300853      62
CQUAD4    300512     101  300853  300854  300857  300856      62
CQUAD4    300530     101  300898  300899  300902  300901      67
CQUAD4    300531     101  300900  300896  300898  300901      67
CQUAD4    300532     101  300896  300897  300899  300898      67
$ ... 68 like lines cut
CTRIA3    300687     102  301191  300319  301182      91
CQUAD4    300688     102  300029  300025  301168  301167      91
CQUAD4    300689     102  300025  300012  301169  301168      91
CQUAD4    300690     102  300012  300008  301170  301169      91
CQUAD4    300691     102  300008  300004  301171  301170      91
CQUAD4    300692     102  301201  301202  301206  301205      92
CQUAD4    300693     102  301202  301203  301207  301206      92
CQUAD4    300694     102  301203  301204  301208  301207      92
CQUAD4    300695     102  301205  301206  301213  301212      92
CQUAD4    300696     102  301206  301207  301214  301213      92
CQUAD4    300697     102  301207  301208  301215  301214      92
CQUAD4    300698     102  300319  300317  301201  301210      92
CQUAD4    300699     102  301210  301201  301205  301211      92
CTRIA3    300700     102  301211  301212  301205      92
CQUAD4    300701     102  300317  300309  301202  301201      92
CQUAD4    300702     102  300309  300306  301203  301202      92
CQUAD4    300703     102  300306  300303  301204  301203      92
CQUAD4    300704     102  301221  301222  301226  301225      93
CQUAD4    300705     102  301222  301223  301227  301226      93
CQUAD4    300706     102  301212  301213  301221  301220      93
CQUAD4    300707     102  301213  301214  301222  301221      93
CQUAD4    300708     102  301214  301215  301223  301222      93
CQUAD4    300709     102  301220  301221  301225  301224      93
CQUAD4    300710     102  301231  301232  301235  301234      94
CQUAD4    300711     102  301232  301233  301236  301235      94
CQUAD4    300712     102  301234  301235  300506  300509      94
CQUAD4    300713     102  301235  301236  300504  300506      94
CQUAD4    300714     102  301224  301225  301231  301238      94
CQUAD4    300715     102  301238  301231  301234  301239      94
CTRIA3    300716     102  301239  300509  301234      94
CQUAD4    300717     102  301225  301226  301232  301231      94
CQUAD4    300718     102  301226  301227  301233  301232      94
CQUAD4    300761     102  301318  301319  301324  301323      99
CQUAD4    300762     102  301319  301320  301325  301324      99
CQUAD4    300763     102  301320  301321  301326  301325      99
CQUAD4    300764     102  301321  301322  301327  301326      99
CQUAD4    300765     102  301323  301324  301329  301328      99
CQUAD4    300766     102  301324  301325  301330  301329      99
CQUAD4    300767     102  301325  301326  301331  301330      99
CQUAD4    300768     102  301326  301327  301332  301331      99
CQUAD4    300769     102  301328  301329  300351  300350      99
CQUAD4    300770     102  301329  301330  300352  300351      99
CQUAD4    300771     102  301330  301331  300353  300352      99
CQUAD4    300772     102  301331  301332  300354  300353      99
CQUAD4    300773     102  300088  300089  301318  301334      99
CQUAD4    300774     102  301334  301318  301323  301335      99
CQUAD4    300775     102  301335  301323  301328  301336      99
CTRIA3    300776     102  301336  300350  301328      99
CQUAD4    300777     102  300089  300090  301319  301318      99
CQUAD4    300778     102  300090  300091  301320  301319      99
CQUAD4    300779     102  300091  300092  301321  301320      99
CQUAD4    300780     102  300092  300093  301322  301321      99
CQUAD4    300781     102  301348  301349  301354  301353     100
CQUAD4    300782     102  301349  301350  301355  301354     100
CQUAD4    300783     102  301350  301351  301356  301355     100
CQUAD4    300784     102  300350  300351  301348  301347     100
CQUAD4    300785     102  300351  300352  301349  301348     100
CQUAD4    300786     102  300352  300353  301350  301349     100
CQUAD4    300787     102  300353  300354  301351  301350     100
CQUAD4    300788     102  301347  301348  301353  301352     100
CQUAD4    300789     102  301361  301362  301368  301367     101
CQUAD4    300790     102  301362  301363  301369  301368     101
CQUAD4    300791     102  301363  301364  301370  301369     101
CQUAD4    300792     102  301352  301353  301361  301366     101
CTRIA3    300793     102  301366  301367  301361     101
CQUAD4    300794     102  301353  301354  301362  301361     101
CQUAD4    300795     102  301354  301355  301363  301362     101
CQUAD4    300796     102  301355  301356  301364  301363     101
CQUAD4    300797     102  301376  301377  300515  300518     102
CQUAD4    300798     102  301377  301378  300512  300515     102
CQUAD4    300799     102  301367  301368  301376  301375     102
CQUAD4    300800     102  301368  301369  301377  301376     102
CQUAD4    300801     102  301369  301370  301378  301377     102
CQUAD4    300802     102  301375  301376  300518  300524     102
CQUAD4    300842     102  301456  301457  301461  301460     107
CQUAD4    300843     102  301457  301458  301462  301461     107
CQUAD4    300844     102  301460  301461  301465  301464     107
CQUAD4    300845     102  301461  301462  301466  301465     107
CQUAD4    300846     102  301464  301465  301469  301468     107
CQUAD4    300847     102  301465  301466  301470  301469     107
CQUAD4    300848     102  301468  301469  300387  300386     107
CQUAD4    300849     102  301469  301470  300388  300387     107
CQUAD4    300850     102  300148  300149  301456  301455     107
CQUAD4    300851     102  300149  300150  301457  301456     107
CQUAD4    300852     102  300150  300151  301458  301457     107
$ ... 66 like lines cut
CTRIA3    300986     102  301731  301732  301726     129
CQUAD4    300987     102  300518  300515  301724  301723     129
CQUAD4    300988     102  300515  300512  301725  301724     129
CQUAD4    300989     102  301739  301740  301743  301742     130
CQUAD4    300990     102  301732  301733  301739  301738     130
CQUAD4    300991     102  301733  301734  301740  301739     130
CQUAD4    300992     102  301738  301739  301742  301741     130
CQUAD4    300993     102  301748  301749  301752  301751     131
CQUAD4    300994     102  301751  301752  300653  300652     131
CQUAD4    300995     102  301741  301742  301748  301747     131
CQUAD4    300996     102  301742  301743  301749  301748     131
CQUAD4    300997     102  301747  301748  301751  301750     131
CQUAD4    300998     102  301750  301751  300652  300651     131
CQUAD4    300999     102  301760  301761  301764  301763     132
CQUAD4    301000     102  301763  301764  301767  301766     132
CQUAD4    301001     102  300651  300652  301760  301759     132
CQUAD4    301002     102  300652  300653  301761  301760     132
CQUAD4    301003     102  301759  301760  301763  301762     132
CQUAD4    301004     102  301762  301763  301766  301765     132
CQUAD4    301005     102  301772  301773  301776  301775     133
CQUAD4    301006     102  301765  301766  301772  301771     133
$ ... 14 like lines cut
CTRIA3    301056     102  301869  301870  301864     141
CQUAD4    301057     102  300538  300539  301862  301861     141
CQUAD4    301058     102  300539  300540  301863  301862     141
CQUAD4    301059     102  301877  301878  301881  301880     142
CQUAD4    301060     102  301870  301871  301877  301876     142
CQUAD4    301061     102  301871  301872  301878  301877     142
CQUAD4    301062     102  301876  301877  301880  301879     142
CQUAD4    301063     102  301886  301887  301890  301889     143
CQUAD4    301064     102  301889  301890  300662  300661     143
CQUAD4    301065     102  301879  301880  301886  301885     143
CQUAD4    301066     102  301880  301881  301887  301886     143
CQUAD4    301067     102  301885  301886  301889  301888     143
CQUAD4    301068     102  301888  301889  300661  300660     143
CQUAD4    301069     102  301898  301899  301902  301901     144
CQUAD4    301070     102  301901  301902  301905  301904     144
CQUAD4    301071     102  300660  300661  301898  301897     144
CQUAD4    301072     102  300661  300662  301899  301898     144
CQUAD4    301073     102  301897  301898  301901  301900     144
CQUAD4    301074     102  301900  301901  301904  301903     144
CQUAD4    301075     102  301910  301911  301914  301913     145
CQUAD4    301076     102  301903  301904  301910  301909     145
$ ... 551 like lines cut
CTRIA3    302254     110  300166  303813  303804     237
CQUAD4    302255     110  301458  303794  303795  301462     237
CQUAD4    302256     110  301462  303795  303796  301466     237
CQUAD4    302257     110  301466  303796  303797  301470     237
CQUAD4    302258     110  301470  303797  300394  300388     237
CQUAD4    302259     110  303823  303824  303829  303828     238
CQUAD4    302260     110  303824  303825  303830  303829     238
CQUAD4    302261     110  303825  303826  303831  303830     238
CQUAD4    302262     110  303826  300402  300403  303831     238
CQUAD4    302263     110  303828  303829  303834  303833     238
CQUAD4    302264     110  303829  303830  303835  303834     238
CQUAD4    302265     110  303830  303831  303836  303835     238
CQUAD4    302266     110  303831  300403  300404  303836     238
CQUAD4    302267     110  303833  303834  303843  303842     238
CQUAD4    302268     110  303834  303835  303844  303843     238
CQUAD4    302269     110  303835  303836  303845  303844     238
CQUAD4    302270     110  303836  300404  300405  303845     238
CQUAD4    302271     110  300148  301455  303823  300162     238
CQUAD4    302272     110  300162  303823  303828  300163     238
CQUAD4    302273     110  300163  303828  303833  300164     238
CTRIA3    302274     110  300164  303833  303842     238
CQUAD4    302275     110  301455  301459  303824  303823     238
CQUAD4    302276     110  301459  301463  303825  303824     238
CQUAD4    302277     110  301463  301467  303826  303825     238
CQUAD4    302278     110  301467  300385  300402  303826     238
CQUAD4    302279     110  303852  303857  303858  303853     239
CQUAD4    302280     110  303853  303858  303859  303854     239
CQUAD4    302281     110  303854  303859  303860  303855     239
CQUAD4    302282     110  303855  303860  300416  300413     239
CQUAD4    302283     110  303857  303862  303863  303858     239
CQUAD4    302284     110  303858  303863  303864  303859     239
CQUAD4    302285     110  303859  303864  303865  303860     239
CQUAD4    302286     110  303860  303865  300419  300416     239
CQUAD4    302287     110  303862  300178  303871  303863     239
CQUAD4    302288     110  303863  303871  303872  303864     239
CQUAD4    302289     110  303864  303872  303873  303865     239
CQUAD4    302290     110  303865  303873  300422  300419     239
CQUAD4    302291     110  300166  300172  303852  303813     239
CQUAD4    302292     110  300172  300175  303857  303852     239
CQUAD4    302293     110  300175  300178  303862  303857     239
CQUAD4    302294     110  303813  303852  303853  303814     239
$ ... 31 like lines cut
CTRIA3    302466     111  304138  304139  304132     251
CQUAD4    302467     111  301208  304126  304127  301204     251
CQUAD4    302468     111  301204  304127  300302  300303     251
CQUAD4    302469     111  304145  304146  304149  304148     252
CQUAD4    302470     111  304146  300318  300314  304149     252
CQUAD4    302471     111  304148  304149  304152  304151     252
CQUAD4    302472     111  304149  300314  300312  304152     252
CQUAD4    302473     111  304151  304152  304140  304139     252
CQUAD4    302474     111  304152  300312  300310  304140     252
CQUAD4    302475     111  301212  301211  304145  304155     252
CQUAD4    302476     111  304155  304145  304148  304156     252
CQUAD4    302477     111  304156  304148  304151  304138     252
CTRIA3    302478     111  304138  304151  304139     252
CQUAD4    302479     111  301211  301210  304146  304145     252
CQUAD4    302480     111  301210  300319  300318  304146     252
CQUAD4    302481     111  304167  304173  304174  304168     253
CQUAD4    302482     111  304168  304174  304175  304169     253
CQUAD4    302483     111  304169  304175  304176  304170     253
CQUAD4    302484     111  304170  304176  304177  304171     253
CQUAD4    302485     111  304171  304177  301208  301204     253
CQUAD4    302486     111  304173  301356  304182  304174     253
CQUAD4    302487     111  304174  304182  304183  304175     253
CQUAD4    302488     111  304175  304183  304184  304176     253
CQUAD4    302489     111  304176  304184  304185  304177     253
CQUAD4    302490     111  304177  304185  301215  301208     253
CQUAD4    302491     111  300354  301351  304167  300349     253
CQUAD4    302492     111  301351  301356  304173  304167     253
CQUAD4    302493     111  300349  304167  304168  300344     253
CQUAD4    302494     111  300344  304168  304169  300339     253
CQUAD4    302495     111  300339  304169  304170  300334     253
CQUAD4    302496     111  300334  304170  304171  300329     253
CQUAD4    302497     111  300329  304171  301204  300303     253
CQUAD4    302498     111  304193  304194  304200  304199     254
$ ... 86 like lines cut
CTRIA3    302585     111  300422  304324  304317     259
CQUAD4    302586     111  304285  304311  304312  304286     259
CQUAD4    302587     111  304328  304329  304331  304330     260
CQUAD4    302588     111  304330  304331  304333  304332     260
CQUAD4    302589     111  304332  304333  304335  304334     260
CQUAD4    302590     111  304334  304335  304342  304341     260
CQUAD4    302591     111  300405  304307  304328  300411     260
CQUAD4    302592     111  300411  304328  304330  300414     260
CQUAD4    302593     111  300414  304330  304332  300417     260
CQUAD4    302594     111  300417  304332  304334  300420     260
CTRIA3    302595     111  300420  304334  304341     260
CQUAD4    302596     111  304307  304308  304329  304328     260
CQUAD4    302713     111  304534  304537  304538  304535     271
CQUAD4    302714     111  304535  304538  304539  304536     271
CQUAD4    302715     111  304537  304543  304544  304538     271
CQUAD4    302716     111  304538  304544  304545  304539     271
CQUAD4    302717     111  300504  300503  304534  301236     271
CQUAD4    302718     111  300503  300507  304537  304534     271
CTRIA3    302719     111  300507  304543  304537     271
CQUAD4    302720     111  301236  304534  304535  301233     271
CQUAD4    302721     111  301233  304535  304536  301227     271
CQUAD4    302722     111  304549  304550  304553  304552     272
CQUAD4    302723     111  304550  304551  304554  304553     272
CQUAD4    302724     111  304552  304553  304544  304543     272
CQUAD4    302725     111  304553  304554  304545  304544     272
CQUAD4    302726     111  300509  301239  304549  300508     272
CQUAD4    302727     111  300508  304549  304552  300507     272
CTRIA3    302728     111  300507  304552  304543     272
CQUAD4    302729     111  301239  301238  304550  304549     272
CQUAD4    302730     111  301238  301224  304551  304550     272
CQUAD4    302731     111  304565  304569  304570  304566     273
CQUAD4    302732     111  304566  304570  304571  304567     273
CQUAD4    302733     111  304567  304571  301236  301233     273
CQUAD4    302734     111  304569  300512  300511  304570     273
CQUAD4    302735     111  304570  300511  300510  304571     273
CQUAD4    302736     111  304571  300510  300504  301236     273
CQUAD4    302737     111  301370  301378  304565  304561     273
CQUAD4    302738     111  301378  300512  304569  304565     273
CQUAD4    302739     111  304561  304565  304566  304562     273
CQUAD4    302740     111  304562  304566  304567  304563     273
CQUAD4    302741     111  304563  304567  301233  301227     273
CQUAD4    302742     111  304583  304584  304588  304587     274
CQUAD4    302743     111  304584  304585  304589  304588     274
CQUAD4    302744     111  304585  301238  301239  304589     274
CQUAD4    302745     111  304587  304588  300523  300524     274
CQUAD4    302746     111  304588  304589  300522  300523     274
CQUAD4    302747     111  304589  301239  300509  300522     274
CQUAD4    302748     111  301367  304579  304583  301375     274
$ ... 68 like lines cut
CTRIA3    302817     111  300567  304657  304693     279
CQUAD4    302818     111  304685  304687  304688  304686     279
CQUAD4    302819     111  304704  304705  304707  304706     280
CQUAD4    302820     111  304706  304707  304709  304708     280
CQUAD4    302821     111  304708  304709  304711  304710     280
CQUAD4    302822     111  304710  304711  304682  304683     280
CQUAD4    302823     111  300580  304702  304704  300577     280
CQUAD4    302824     111  300577  304704  304706  300574     280
CQUAD4    302825     111  300574  304706  304708  300571     280
CQUAD4    302826     111  300571  304708  304710  300565     280
CTRIA3    302827     111  300565  304710  304683     280
CQUAD4    302828     111  304702  304703  304705  304704     280
CQUAD4    302937     112  304906  301590  301593  304907     291
CQUAD4    302938     112  304907  301593  301596  304908     291
CQUAD4    302939     112  300507  300503  304906  304902     291
CQUAD4    302940     112  304902  304906  304907  304903     291
CQUAD4    302941     112  304903  304907  304908  304904     291
CQUAD4    302942     112  300503  300504  301590  304906     291
CQUAD4    302943     112  304918  304919  301591  301588     292
CQUAD4    302944     112  304919  304920  301594  301591     292
CQUAD4    302945     112  300507  304902  304918  300508     292
CQUAD4    302946     112  304902  304903  304919  304918     292
CQUAD4    302947     112  304903  304904  304920  304919     292
CQUAD4    302948     112  300508  304918  301588  300509     292
CQUAD4    302949     112  304930  304934  304935  304931     293
CQUAD4    302950     112  304931  304935  304936  304932     293
CQUAD4    302951     112  304934  301725  301728  304935     293
CQUAD4    302952     112  304935  301728  301734  304936     293
CQUAD4    302953     112  300504  300510  304930  301590     293
CQUAD4    302954     112  301590  304930  304931  301593     293
CQUAD4    302955     112  301593  304931  304932  301596     293
$ ... 44 like lines cut
CTRIA3    303000     112  301872  301866  305004     297
CQUAD4    303001     112  304989  304992  304993  304990     297
CQUAD4    303002     112  304990  304993  300558  300567     297
CQUAD4    303003     112  305019  305020  305023  305022     298
CQUAD4    303004     112  305020  300564  300563  305023     298
CQUAD4    303005     112  305022  305023  305026  305025     298
CQUAD4    303006     112  305023  300563  300562  305026     298
CQUAD4    303007     112  305025  305026  305029  305028     298
CQUAD4    303008     112  305026  300562  300561  305029     298
CQUAD4    303009     112  305028  305029  305032  305031     298
CQUAD4    303010     112  305029  300561  300560  305032     298
CQUAD4    303011     112  305031  305032  301868  301869     298
CQUAD4    303012     112  305032  300560  300537  301868     298
CQUAD4    303013     112  305034  305016  305019  305035     298
CQUAD4    303014     112  305035  305019  305022  305036     298
CQUAD4    303015     112  305036  305022  305025  305037     298
CQUAD4    303016     112  305037  305025  305028  305038     298
CQUAD4    303017     112  305038  305028  305031  301870     298
CTRIA3    303018     112  301870  305031  301869     298
CQUAD4    303019     112  305016  305017  305020  305019     298
CQUAD4    303020     112  305017  300565  300564  305020     298
CQUAD4    303021     112  305048  305052  305053  305049     299
CQUAD4    303022     112  305049  305053  305054  305050     299
CQUAD4    303023     112  305052  305056  305057  305053     299
CQUAD4    303024     112  305053  305057  305058  305054     299
CQUAD4    303025     112  305056  305060  305061  305057     299
CQUAD4    303026     112  305057  305061  305062  305058     299
CQUAD4    303027     112  300567  300573  305048  304990     299
CQUAD4    303028     112  304990  305048  305049  304989     299
CQUAD4    303029     112  304989  305049  305050  305007     299
CQUAD4    303030     112  300573  300576  305052  305048     299
CQUAD4    303031     112  300576  300579  305056  305052     299
CQUAD4    303032     112  300579  300582  305060  305056     299
CQUAD4    303033     112  305068  305069  305073  305072     300
CQUAD4    303034     112  305069  305070  305074  305073     300
CQUAD4    303035     112  305072  305073  305077  305076     300
CQUAD4    303036     112  305073  305074  305078  305077     300
CQUAD4    303037     112  305076  305077  305061  305060     300
CQUAD4    303038     112  305077  305078  305062  305061     300
$ ... 24 like lines cut
CTRIA3    303165     112  300639  301614  305283     313
CQUAD4    303166     112  301752  305280  305281  301749     313
CQUAD4    303167     112  301749  305281  305282  301743     313
CQUAD4    303168     112  305295  305296  305299  305298     314
CQUAD4    303169     112  305296  305297  305300  305299     314
CQUAD4    303170     112  305298  305299  301609  301612     314
CQUAD4    303171     112  305299  305300  301603  301609     314
CQUAD4    303172     112  300651  301750  305295  300648     314
CQUAD4    303173     112  300648  305295  305298  300644     314
CTRIA3    303174     112  300644  305298  301612     314
CQUAD4    303175     112  301750  301747  305296  305295     314
CQUAD4    303176     112  301747  301741  305297  305296     314
CQUAD4    303177     112  305310  305313  305314  305311     315
CQUAD4    303178     112  305311  305314  305315  305312     315
CQUAD4    303179     112  305313  301752  301749  305314     315
CQUAD4    303180     112  305314  301749  301743  305315     315
CQUAD4    303181     112  300662  300659  305310  301890     315
CQUAD4    303182     112  300659  300653  305313  305310     315
CTRIA3    303183     112  300653  301752  305313     315
CQUAD4    303184     112  301890  305310  305311  301887     315
CQUAD4    303185     112  301887  305311  305312  301881     315
CQUAD4    303186     112  305325  305326  305329  305328     316
CQUAD4    303187     112  305326  305327  305330  305329     316
CQUAD4    303188     112  305328  305329  301747  301750     316
CQUAD4    303189     112  305329  305330  301741  301747     316
CQUAD4    303190     112  300660  301888  305325  300657     316
CQUAD4    303191     112  300657  305325  305328  300651     316
CTRIA3    303192     112  300651  305328  301750     316
CQUAD4    303193     112  301888  301885  305326  305325     316
CQUAD4    303194     112  301885  301879  305327  305326     316
CQUAD4    303195     112  305342  305346  305347  305343     317
CQUAD4    303196     112  305343  305347  300671  300668     317
CQUAD4    303197     112  305346  305350  305351  305347     317
CQUAD4    303198     112  305347  305351  300674  300671     317
CQUAD4    303199     112  305350  305354  305355  305351     317
CQUAD4    303200     112  305351  305355  300677  300674     317
CQUAD4    303201     112  305354  305358  305359  305355     317
CQUAD4    303202     112  305355  305359  300680  300677     317
CQUAD4    303203     112  301881  305341  305342  301887     317
CQUAD4    303204     112  301887  305342  305343  301890     317
CQUAD4    303205     112  301890  305343  300668  300662     317
CQUAD4    303206     112  305341  305345  305346  305342     317
CQUAD4    303207     112  305345  305349  305350  305346     317
CQUAD4    303208     112  305349  305353  305354  305350     317
CQUAD4    303209     112  305353  305357  305358  305354     317
CQUAD4    303210     112  305366  305367  305371  305370     318
CQUAD4    303211     112  305367  300666  300669  305371     318
CQUAD4    303212     112  305370  305371  305375  305374     318
$ ... 21 like lines cut
CTRIA3    303234     112  300680  305359  305394     319
CQUAD4    303235     112  305385  305388  305389  305386     319
CQUAD4    303236     112  305386  305389  305390  305387     319
CQUAD4    303237     112  305407  305408  305411  305410     320
CQUAD4    303238     112  305408  305409  305412  305411     320
CQUAD4    303239     112  305410  305411  305414  305413     320
CQUAD4    303240     112  305411  305412  305415  305414     320
CQUAD4    303241     112  305413  305414  305382  305383     320
CQUAD4    303242     112  305414  305415  305381  305382     320
CQUAD4    303243     112  300690  305385  305407  300687     320
CQUAD4    303244     112  300687  305407  305410  300684     320
CQUAD4    303245     112  300684  305410  305413  300678     320
CTRIA3    303246     112  300678  305413  305383     320
CQUAD4    303247     112  305385  305386  305408  305407     320
CQUAD4    303248     112  305386  305387  305409  305408     320
CQUAD4    303333     113  305578  301623  301626  305579     331
CQUAD4    303334     113  305579  301626  301629  305580     331
CQUAD4    303335     113  300642  300638  305578  305574     331
CQUAD4    303336     113  305574  305578  305579  305575     331
CQUAD4    303337     113  305575  305579  305580  305576     331
CQUAD4    303338     113  300638  300639  301623  305578     331
CQUAD4    303339     113  305590  305591  301624  301621     332
CQUAD4    303340     113  305591  305592  301627  301624     332
CQUAD4    303341     113  300642  305574  305590  300643     332
CQUAD4    303342     113  305574  305575  305591  305590     332
CQUAD4    303343     113  305575  305576  305592  305591     332
CQUAD4    303344     113  300643  305590  301621  300644     332
CQUAD4    303345     113  305602  301761  301764  305603     333
CQUAD4    303346     113  305603  301764  301767  305604     333
CQUAD4    303347     113  300639  300650  305602  301623     333
CQUAD4    303348     113  301623  305602  305603  301626     333
CQUAD4    303349     113  301626  305603  305604  301629     333
CQUAD4    303350     113  300650  300653  301761  305602     333
$ ... 30 like lines cut
CTRIA3    303381     113  301905  301902  305657     337
CQUAD4    303382     113  305645  305648  305649  305646     337
CQUAD4    303383     113  305646  305649  300677  300680     337
CQUAD4    303384     113  305671  305672  305675  305674     338
CQUAD4    303385     113  305672  300675  300672  305675     338
CQUAD4    303386     113  305674  305675  305678  305677     338
CQUAD4    303387     113  305675  300672  300669  305678     338
CQUAD4    303388     113  305677  305678  305681  305680     338
CQUAD4    303389     113  305678  300669  300666  305681     338
CQUAD4    303390     113  305680  305681  301897  301900     338
CQUAD4    303391     113  305681  300666  300660  301897     338
CQUAD4    303392     113  305683  305668  305671  305684     338
CQUAD4    303393     113  305684  305671  305674  305685     338
CQUAD4    303394     113  305685  305674  305677  305686     338
CQUAD4    303395     113  305686  305677  305680  301903     338
CTRIA3    303396     113  301903  305680  301900     338
CQUAD4    303397     113  305668  305669  305672  305671     338
CQUAD4    303398     113  305669  300678  300675  305672     338
CQUAD4    303399     113  305696  305700  305701  305697     339
CQUAD4    303400     113  305697  305701  305702  305698     339
CQUAD4    303401     113  305700  305704  305705  305701     339
CQUAD4    303402     113  305701  305705  305706  305702     339
CQUAD4    303403     113  300680  300686  305696  305646     339
CQUAD4    303404     113  305646  305696  305697  305645     339
CQUAD4    303405     113  305645  305697  305698  305660     339
CQUAD4    303406     113  300686  300689  305700  305696     339
CQUAD4    303407     113  300689  300690  305704  305700     339
CQUAD4    303408     113  305712  305713  305717  305716     340
CQUAD4    303409     113  305713  305714  305718  305717     340
CQUAD4    303410     113  305716  305717  305705  305704     340
CQUAD4    303411     113  305717  305718  305706  305705     340
CQUAD4    303412     113  300678  305669  305712  300684     340
CQUAD4    303413     113  305669  305668  305713  305712     340
CQUAD4    303414     113  305668  305683  305714  305713     340
CQUAD4    303415     113  300684  305712  305716  300687     340
CQUAD4    303416     113  300687  305716  305704  300690     340
$ ... 45 like lines cut
CTRIA3    303540     113  300763  301923  305944     357
CQUAD4    303541     113  305935  305938  305939  305936     357
CQUAD4    303542     113  305936  305939  305940  305937     357
CQUAD4    303543     113  305957  305958  305961  305960     358
CQUAD4    303544     113  305958  305959  305962  305961     358
CQUAD4    303545     113  305960  305961  305964  305963     358
CQUAD4    303546     113  305961  305962  305965  305964     358
CQUAD4    303547     113  305963  305964  301918  301921     358
CQUAD4    303548     113  305964  305965  301912  301918     358
CQUAD4    303549     113  300773  305954  305957  300770     358
CQUAD4    303550     113  300770  305957  305960  300767     358
CQUAD4    303551     113  300767  305960  305963  300761     358
CTRIA3    303552     113  300761  305963  301921     358
CQUAD4    303553     113  305954  305955  305958  305957     358
CQUAD4    303554     113  305955  305956  305959  305958     358
CQUAD4    303555     113  305976  305979  305980  305977     359
CQUAD4    303556     113  305977  305980  305981  305978     359
CQUAD4    303557     113  305979  305935  305936  305980     359
CQUAD4    303558     113  305980  305936  305937  305981     359
CQUAD4    303559     113  300782  300781  305976  305973     359
CQUAD4    303560     113  300781  300775  305979  305976     359
CTRIA3    303561     113  300775  305935  305979     359
CQUAD4    303562     113  305973  305976  305977  305974     359
CQUAD4    303563     113  305974  305977  305978  305975     359
CQUAD4    303564     113  305991  305992  305995  305994     360
CQUAD4    303565     113  305992  305993  305996  305995     360
CQUAD4    303566     113  305994  305995  305955  305954     360
CQUAD4    303567     113  305995  305996  305956  305955     360
CQUAD4    303568     113  300782  305973  305991  300779     360
CQUAD4    303569     113  300779  305991  305994  300773     360
CTRIA3    303570     113  300773  305994  305954     360
CQUAD4    303571     113  305973  305974  305992  305991     360
CQUAD4    303572     113  305974  305975  305993  305992     360
CQUAD4    303683     114  306202  302112  302115  306203     371
CQUAD4    303684     114  306203  302115  302118  306204     371
CQUAD4    303685     114  306204  302118  302121  306205     371
CQUAD4    303686     114  306205  302121  302124  306206     371
CQUAD4    303687     114  300743  300739  306202  306196     371
CQUAD4    303688     114  306196  306202  306203  306197     371
CQUAD4    303689     114  306197  306203  306204  306198     371
CQUAD4    303690     114  306198  306204  306205  306199     371
CQUAD4    303691     114  306199  306205  306206  306200     371
CQUAD4    303692     114  300739  300740  302112  306202     371
CQUAD4    303693     114  306220  306221  302113  302110     372
CQUAD4    303694     114  306221  306222  302116  302113     372
CQUAD4    303695     114  306222  306223  302119  302116     372
CQUAD4    303696     114  306223  306224  302122  302119     372
CQUAD4    303697     114  300743  306196  306220  300744     372
CQUAD4    303698     114  306196  306197  306221  306220     372
CQUAD4    303699     114  306197  306198  306222  306221     372
CQUAD4    303700     114  306198  306199  306223  306222     372
$ ... 882 like lines cut
CTRIA3    305425     111  301227  301223  309235     531
CQUAD4    305426     111  301364  309229  304182  301356     531
CQUAD4    305427     111  309246  304208  304209  309248     532
CQUAD4    305428     111  309248  304209  304210  309250     532
CQUAD4    305429     111  309250  304210  304211  309252     532
CQUAD4    305430     111  309252  304211  301212  301220     532
CQUAD4    305431     111  301367  301366  309246  304579     532
CQUAD4    305432     111  304579  309246  309248  304580     532
CQUAD4    305433     111  304580  309248  309250  304581     532
CQUAD4    305434     111  304581  309250  309252  301224     532
CTRIA3    305435     111  301224  309252  301220     532
CQUAD4    305436     111  301366  301352  304208  309246     532
CQUAD4    305437     111  309263  309265  304233  304232     533
CQUAD4    305438     111  309265  309267  304234  304233     533
CQUAD4    305439     111  309267  309269  304235  304234     533
CQUAD4    305440     111  309269  301364  301356  304235     533
CQUAD4    305441     111  301502  304602  309263  301498     533
CQUAD4    305442     111  304602  304605  309265  309263     533
CQUAD4    305443     111  304605  304608  309267  309265     533
CQUAD4    305444     111  304608  301370  309269  309267     533
CTRIA3    305445     111  301370  301364  309269     533
CQUAD4    305446     111  301498  309263  304232  301490     533
CQUAD4    305447     111  309280  304258  304259  309282     534
CQUAD4    305448     111  309282  304259  304260  309284     534
CQUAD4    305449     111  309284  304260  304261  309286     534
CQUAD4    305450     111  309286  304261  301352  301366     534
CQUAD4    305451     111  301499  301495  309280  304620     534
CQUAD4    305452     111  304620  309280  309282  304623     534
CQUAD4    305453     111  304623  309282  309284  304626     534
CQUAD4    305454     111  304626  309284  309286  301367     534
CTRIA3    305455     111  301367  309286  301366     534
CQUAD4    305456     111  301495  301487  304258  309280     534
CQUAD4    305457     111  309299  309302  304653  304652     535
CQUAD4    305458     111  309302  309305  304654  304653     535
CQUAD4    305459     111  309305  309308  304655  304654     535
CQUAD4    305460     111  309308  309311  304656  304655     535
CQUAD4    305461     111  301490  304270  309299  301498     535
CQUAD4    305462     111  301498  309299  304652  301502     535
CQUAD4    305463     111  304270  304273  309302  309299     535
CQUAD4    305464     111  304273  304276  309305  309302     535
CQUAD4    305465     111  304276  304279  309308  309305     535
CQUAD4    305466     111  304279  304286  309311  309308     535
CQUAD4    305467     111  309317  304678  304679  309320     536
CQUAD4    305468     111  309320  304679  304680  309323     536
CQUAD4    305469     111  309323  304680  304681  309326     536
CQUAD4    305470     111  309326  304681  304682  309329     536
CQUAD4    305471     111  301487  301495  309317  304292     536
CQUAD4    305472     111  301495  301499  304678  309317     536
CQUAD4    305473     111  304292  309317  309320  304295     536
CQUAD4    305474     111  304295  309320  309323  304298     536
CQUAD4    305475     111  304298  309323  309326  304301     536
$ ... 317 like lines cut
CTRIA3    306103      17  200051  200056  200050     734
CTRIA3    306104      17  200050  200051  200045     734
CTRIA3    306105      17  200051  200045  200046     734
CTRIA3    306106      17  200076  200081  200080     736
CTRIA3    306107      17  200076  200074  200077     736
CTRIA3    306108      17  200140  200145  200139     742
CTRIA3    306109      17  200139  200140  200134     742
CTRIA3    306110      17  200140  200134  200135     742
CELAS1    306111     138       1       1       3       1
CELAS1    306112       7       1       2       3       2
CELAS1    306113       8       1       3       3       3
CELAS1    306114       9       1       4       3       4
CELAS1    306115      10       1       5       3       5
CELAS1    306116      23       1       6       3       6
CONM2     306117       5       0     .11      0.      0.      0.
CONM2     306118       6       0     .11      0.      0.      0.
$AERO CARDS
PAERO1         1
CAERO1     20000       1       0       2      20                       1
              0.      0. -.01016 .574802.2156206  .13335  .00175 .305308
CAERO1     40000       1       0       2      11                       1
        .2156206  .13335  .00175 .305308 .294132   .3175  .01905   .1524
CAERO1     60000       1       0       8       6                       1
         .294132   .3175  .01905   .1524.61760011.076201  .01905   .1524
CAERO1    110000       1       0       4      20                       1
         .5882081.076201  .01905  .18796 .6898081.076201  .06985.1253067
CAERO1    120000       1       0       4      20                       1
         .5882081.076201  .01905  .18796 .6898081.076201 -.03175.1253067
CAERO1    130000       1       0       7      14                       1
         .6898081.076201  .06985.1253067 .8066481.076201  .17145  .08636
CAERO1    140000       1       0       7      14                       1
         .6898081.076201 -.03175.1253067 .8066481.076201 -.13335  .08636
SPLINE1    20000   20000   20000   20039   20000
SPLINE1    40000   40000   40000   40021   40000
SPLINE1    60000   60000   60000   60047   60000
SPLINE1    60005  110000  110000  110079   60005
SPLINE1    60006  120000  120000  120079   60006
SPLINE1    60007  130000  130000  130097   60007
SPLINE1    60008  140000  140000  140097   60008
SET1       20000  300013  300033  300088  300148  300164  300176  300310
          300319  300350  300385  300405  300420  300507  300509  300524
          300537  300565  300580  301212  301224  301352  301367  301487
          301499  304138  304308  304342  304545  304682  304703
SET1       40000  300507  300509  300524  300537  300565  300580  300642
          300644  300651  300660  300678  300690  300743  300745  300752
          300761  300773  300782  301594  301603  301627  301636  301732
          301741  301765  301774  301870  301879  301903  301912  304904
          305034  305062  305253  305381  305387  305576  305683  305706
          305863  305956  305975
SET1       60000  300743  300745  300752  300761  300773  300782  300826
          300828  300835  300844  300856  300900  300902  300909  300918
          300930  300974  300976  300983  300992  301004  301048  301050
          301057  301066  301078  302122  302131  302167  302176  302212
          302221  302257  302266  302482  302491  302527  302536  302572
          302581  302617  302626  302842  302851  302887  302896  302932
          302941  302977  302986  306200  306350  306368  306579  306729
          306747  306752  306968  307118  307136  307347  307497  307515
          307520  307736  307886  307904  308115  308265  308283  308288
          308504  308654  308672  308883  309033  309051  309056
SET1       60001  100051  100060  100070  100079  100082  100089  100098
          100107  100119  100131  100300  100314  100330
SET1       60002  100079  100082  100089  100098  100107  100119  100131
          100140  100149  100159  100309  100323  100343
SET1       60003  100007  100010  100020  100026  100032  100042  100051
          100060  100070
SET1       60004  100140  100149  100159  100165  100171  100181  100190
          100193  100203
SET1       60005  200051  200060  200070  200079  200082  200089  200098
          200107  200119  200131  200300  200314  200330
SET1       60006  200079  200082  200089  200098  200107  200119  200131
          200140  200149  200159  200309  200323  200343
SET1       60007  200007  200010  200020  200026  200032  200042  200051
          200060  200070
SET1       60008  200140  200149  200159  200165  200171  200181  200190
          200193  200203
DVPREL1   300002  PSHELL     101       T
          300002      1.
DVPREL1   300003  PSHELL     102       T
          300003      1.
DVPREL1   300006  PSHELL     110       T
          300006      1.
DVPREL1   300007  PSHELL     111       T
          300007      1.
DVPREL1   300008  PSHELL     112       T
          300008      1.
DVPREL1   300009  PSHELL     113       T
          300009      1.
DVPREL1   300010  PSHELL     114       T
          300010      1.
DVPREL1   300011  PSHELL     115       T
          300011      1.
DVPREL1   300012  PSHELL     116       T
          300012      1.
DVPREL1   300013  PSHELL     117       T
          300013      1.
DESVAR    300002    T101  .00508  .00508     .02      .5
DESVAR    300003    T102  .00254  .00254     .02      .5
DESVAR    300006    T110  .00254  .00254     .02      .5
DESVAR    300007    T111  .00254  .00254     .02      .5
DESVAR    300008    T112  .00254  .00254     .02      .5
DESVAR    300009    T113  .00254  .00254     .02      .5
DESVAR    300010    T114  .00254  .00254     .02      .5
DESVAR    300011    T115  .00254  .00254     .02      .5
DESVAR    300012    T116  .00254  .00254     .02      .5
DESVAR    300013    T117  .00254  .00254     .02      .5

DOPTPRM   DESMAX     100      P1       1      P2       1

$ Femap Constraint Set 2 : center
SPC1           1  123456  300001
SPC1           1  123456  300002
SPC1           1  123456  300003
SPC1           1  123456  300004
SPC1           1  123456  300005
SPC1           1  123456  300006
SPC1           1  123456  300007
SPC1           1  123456  300008
SPC1           1  123456  300009
SPC1           1  123456  300010
SPC1           1  123456  300011
SPC1           1  123456  300012
SPC1           1  123456  300013
SPC1           1  123456  300014
SPC1           1  123456  300015
SPC1           1  123456  300016
SPC1           1  123456  300017
SPC1           1  123456  300018
SPC1           1  123456  300019
SPC1           1  123456  300020
$ ... 139 like lines cut

