SOL 101
MALTER 'MALTER:(KGG, BGG, MGG, K4GG, PG)' $
$OUTPUT2 DB1,DB2,DB3,DB4,DB5//ITAPE/IUNIT/LABL/MAXR/
$        NDDLNAM1/NDDLNAM2/NDDLNAM3/NDDLNAM4/
$ OUTPUT4 M1,M2,M3,M4,M5//ITAPE/IUNIT/UNUSED3/BIGMAT/DIGITS $
$
$ OUTPUT2 DB1//ITAPE/IUNIT/LABL//
$ OUTPUT4 M1 //ITAPE/IUNIT/UNUSED3/BIGMAT/DIGITS $
$
$ setup for NX Nastran
OUTPUT2 KGG//-3/-12/KGG// $
OUTPUT2 BGG//-3/-12/BGG// $
OUTPUT2 MGG//-3/-12/MGG// $
OUTPUT2 K4GG//-3/-12/K4GG// $
OUTPUT2 KELM//-3/-12/KELM// $
OUTPUT2 BELM//-3/-12/BELM// $
OUTPUT2 MELM//-3/-12/MELM// $
$OUTPUT4 KGG//0/-45/2/TRUE/ $
$OUTPUT4 MGG//0/-45/2/TRUE/ $
$OUTPUT4 BGG//0/-45/2/TRUE/ $
$OUTPUT4 K4GG//0/-45/2/TRUE/ $
$OUTPUT4 KELM//0/-45/2/TRUE/ $
$OUTPUT4 BELM//0/-45/2/TRUE/ $
OUTPUT2 KDICT//-3/-12/KDICT// $
OUTPUT2 MDICT//-3/-12/MDICT// $
$OUTPUT4 MELM//0/-45/2/TRUE/ $
CEND
TITLE = MSC.Nastran job
ECHO = NONE
$ Direct Text Input for Global Case Control Data
SUBCASE 1
$ Subcase name : Default
   SUBTITLE=Default
   SPC = 2
   LOAD = 123458
BEGIN BULK
PARAM    POST    -1
PARAM    AUTOSPC NO
PARAM   PRTMAXIM YES
PARAM    POSTEXT     YES
PARAM    OUNIT2K      12
$ Direct Text Input for Bulk Data
$ Pset: "shell" will be imported as: "pshell.1"
INCLUDE 'geom.inc'
MAT1     1      2.9+7   1.1+7   .32     .283
$ Nodes of the Entire Model

GRID     13             .5      .5      3.
$
GRID     5              1.      1.      1.
GRID     6               0.     1.      1.
GRID     7               0.      0.     1.
GRID     8              1.       0.     1.
$
GRID     12              0.      0.     2.
GRID     10              0.     1.      2.
GRID     9              1.      1.      2.
GRID     11             1.       0.     2.
$
GRID     1               0.      0.      0.
GRID     4               0.     1.       0.
GRID     3              1.      1.       0.
GRID     2              1.       0.      0.
$
GRID     14              0.      0.     -1.
GRID     15              0.     1.      -1.
GRID     16             1.      1.      -1.
GRID     17             1.       0.     -1.
$
GRID     18              0.      0.     -2.
GRID     19              0.     1.      -2.
GRID     20             1.      1.      -2.
GRID     21             1.       0.     -2.
$
GRID     22              0.      0.     -3.
GRID     23              0.     1.      -3.
GRID     24             1.      1.      -3.
GRID     25             1.       0.     -3.

$ Loads for Load Case : Default
SPCADD   2       123456
LOAD     123458 1.      1.       10000
$ Displacement Constraints of Load Set : 123456
SPC1     123456  123456  22      23      24      25
SPC1     123456     456  5       thru    13
$ Nodal Forces of Load Set : 10000
FORCE    10000   13      0      10000.   0.      0.     1.
$ Referenced Coordinate Frames
$ global xyz
CORD2R   1       0       0.      0.      0.      0.      0.      1.
         1.      0.      0.
$ global cylindrical
CORD2C   2       0       0.      0.      0.      0.      0.      1.
         1.      0.      0.
$ global spherical
CORD2S   3       0       0.      0.      0.      0.      0.      1.
         1.      0.      0.

$ local xyz
CORD2R   11      0       1.      2.      3.      0.      0.      1.
         0.      1.      0.
$ local cylindrical
CORD2C   12      0       1.      2.      3.      0.      0.      1.
         0.      1.      0.
$ local spherical
CORD2S   13      0       1.      2.      3.      0.      0.      1.
         0.      1.      0.
CORD2R   1000000 0       0.      0.      0.      0.      0.      1.
         1.      0.      0.
ENDDATA 58e050da
