SOL 101
CEND
TITLE = MSC.Nastran job
ECHO = NONE
$ Direct Text Input for Global Case Control Data
SUBCASE 1
$ Subcase name : Default
   SUBTITLE=Default
   SPC = 2
   LOAD = 123458
   DISPLACEMENT(PLOT,PRINT,SORT1,REAL)=ALL
   SPCFORCES(PLOT,PRINT,SORT1,REAL)=ALL
   STRESS(PLOT,PRINT,SORT1,REAL,VONMISES,BILIN)=ALL
   STRAIN(PLOT,PRINT,SORT1,REAL,VONMISES,BILIN)=ALL
   OLOAD(PLOT,PRINT)=ALL
   MPCFORCES(PLOT,PRINT)=ALL
   GPFORCE(PLOT,PRINT)=ALL
   GPKE=ALL
   ESE(PLOT)=ALL
   FORCE(PLOT,PRINT)=ALL
$SUBCASE 2
$ Subcase name : Default
$   ANALYSIS = HEAT
$   SUBTITLE=Default
$   SPC = 2
$   LOAD = 10000
$   TEMPERATURE(INIT) = 10001
$   DISPLACEMENT(PLOT,PRINT,SORT1,REAL)=ALL
BEGIN BULK
PARAM    POST    -1
PARAM    AUTOSPC NO
PARAM   PRTMAXIM YES
$ Direct Text Input for Bulk Data
$ Pset: "shell" will be imported as: "pshell.1"
INCLUDE 'geom.inc'
MAT1     1      2.9+7   1.1+7   .32     .283

$ Loads for Load Case : Default
SPCADD   2       123456
LOAD     123458 1.      1.       10000
$ Displacement Constraints of Load Set : 123456
SPC1     123456  123456  22      23      24      25
SPC1     123456     456  5       thru    13
$ Nodal Forces of Load Set : 10000
FORCE    10000   13      0      10000.   0.      0.     1.
MOMENT   10000   13      0       3000.   0.      0.     1.
$         sid,   nid,f,    g1,  g2
FORCE1,  10000, 13, 100.,  5,   6
MOMENT1, 10000, 13, 100.,  5,   6

$         sid,   nid,f,    g1,  g2, g3, g4
FORCE2,  10000, 13, 200.,  5,   6,  7,  5
MOMENT2, 10000, 13, 200.,  5,   6,  7,  5

SLOAD, 10000, 13, 100., 16, 120.

$CQUAD4   17      7      17      16       20      21
$CTRIA3   18      6      18      14       17
PLOAD	 10000	1.0	17	16	20	21
PLOAD	 10000	2.0	18	14	17
PLOAD2	10000	3.0	17	18
PLOAD2	10000	4.0	17	THRU	20

$CBEAM    12      5       22      26      0.     1.       0.
PLOAD1	10000	12	FX	FR	0.50	1.0	0.7	1.1
PLOAD1	10000	12	FY	LE	0.51	1.0	0.7	1.1
PLOAD1	10000	12	FZ	LEPR	0.52	1.0	0.7	1.1
PLOAD1	10000	12	FXE	FRPR	0.53	1.0	0.7	1.1
PLOAD1	10000	12	FYE	FR	0.54	1.0	0.7	1.1
PLOAD1	10000	12	FZE	FR	0.55	1.0	0.7	1.1
PLOAD1	10000	12	MX	FR	0.56	1.0	0.7	1.1
PLOAD1	10000	12	MY	FR	0.57	1.0	0.7	1.1
PLOAD1	10000	12	MZ	FR	0.58	1.0	0.7	1.1
PLOAD1	10000	12	MXE	FR	0.59	1.0	0.7	1.1
PLOAD1	10000	12	MYE	FR	0.60	1.0	0.7	1.1
PLOAD1	10000	12	MZE	FR	0.61	1.0	0.7	1.1

$CQUAD4   17      7      17      16       20      21
$CTRIA3   18      6      18      14       17
$	sid	eid	p1	p2	p3	p4	thru	eid2
PLOAD4	10000	17	20000.0				thru	18

$TEMP	10001	13	100.
$FORCE    10001   13      0      10000.   0.      0.     1.
$ Referenced Coordinate Frames
$ global xyz
CORD2R   1       0       0.      0.      0.      0.      0.      1.
         1.      0.      0.
ENDDATA 58e050da
