ID MSC-NASTRAN V68
SOL 159
CEND
SUBCASE 1
  TITLE = EXAMPLE 7B
  ANALYSIS = HEAT
  ENTHALPY(PLOT,PRINT,SORT2) = ALL
  THERMAL(PLOT,PRINT,SORT2) = ALL
  FLUX(PLOT,PRINT,SORT2) = ALL
  SPCF(PLOT,PRINT,SORT2) = ALL
  SPCF(PLOT,PRINT,SORT2) = ALL
  OLOAD(PLOT,PRINT,SORT2) = ALL
  GPFORCE(PLOT,PRINT,SORT2) = ALL
  FORCE(PLOT,PRINT,SORT2) = ALL
  IC = 20
  TSTEPNL = 100
  DLOAD = 200
BEGIN BULK
$
PARAM,POST,-1
$
TSTEPNL,100,15,10.0,1,,,,U
$
GRID,1,,0.0,0.0,0.0
GRID,2,,0.0,0.0,1.0
GRID,3,,1.0,0.0,1.0
GRID,4,,1.0,0.0,0.0
GRID,5,,0.0,1.0,0.0
GRID,6,,0.0,1.0,1.0
GRID,7,,1.0,1.0,1.0
GRID,8,,1.0,1.0,0.0
GRID,99,,99.0,99.0,99.0
$
CHEXA,1,5,1,2,3,4,5,6,+CHX1
+CHX1,7,8
PSOLID,5,15
MAT4,15,204.0,896.0,2707.0,100.0$
CHBDYE,10,1,1
CHBDYE,20,1,2
CHBDYE,30,1,3
CHBDYE,40,1,4
CHBDYE,50,1,5
CHBDYE,60,1,6
$
CONV,10,35,,,99
CONV,20,35,,,99
CONV,30,35,,,99
CONV,40,35,,,99
CONV,50,35,,,99
CONV,60,35,,,99
PCONV,35,15,0,0.0
$
TLOAD1,200,300,,,400
TABLED1,400,,,,,,,,+TBD1
+TBD1,0.0,0.0,1000.0,1.0,2000.0,1.0,3000.0,0.0,+TBD2
+TBD2,4000.0,0.0,ENDT
TEMPBC,300,TRAN,500.0,99
TEMP,20,99,0.0
TEMPD,20,0.0
$
ENDDATA
