$ Direct Transient
SOL 109
CEND
TITLE = MSC.Nastran job
ECHO = NONE
$ Direct Text Input for Global Case Control Data
SUBCASE 1
$ Subcase name : Default
   SUBTITLE=Default
   SPC = 2
   $LOAD = 123458
   DISPLACEMENT(PLOT,PRINT,SORT1,REAL)=ALL
   SPCFORCES(PLOT,PRINT,SORT1,REAL)=ALL
   STRESS(PLOT,PRINT,SORT1,REAL,VONMISES,BILIN)=ALL
   STRAIN(PLOT,PRINT,SORT1,REAL,VONMISES,BILIN)=ALL
   OLOAD(PLOT,PRINT)=ALL
   MPCFORCES(PLOT,PRINT)=ALL
   GPFORCE(PLOT,PRINT)=ALL
   GPKE=ALL
   ESE(PLOT)=ALL
   FORCE(PLOT,PRINT)=ALL
   TSTEP = 22
   DLOAD = 501  $ points to the RLOAD1 cards
BEGIN BULK
PARAM    POST    -1
PARAM    AUTOSPC NO
PARAM   PRTMAXIM YES
$  1. Applied Load - AssemblyLoad
$     References an AssemblyElasticBody
$DAREA	sid	nodeID1	compID1	value1
$DAREA	8000	13	1	1.0
DAREA	8001	13	1	1.0

$ loadMotionProfile named Applied Load Profile - SinusoidalSeriesLoadMotionProfile
$ TLOAD1  SID | EXCITEID | DELAY | TYPE | TID |
$ TLOAD2  SID | EXCITEID | DELAY | TYPE | T1  | T2  |  FREQ  |  PHASE  |
$          C  |     B    |  US0  |  VS0 |     |     |        |         |

$ EXCITE_ID => DAREA
$TLOAD1	SID	EXCITEID DELAY	TYPE	TID
TLOAD1	500	600		LOAD	8003

$	SID	nid	cid	scale	fx	fy	fz
FORCE	600	13	0	10000.	0.	0.	1.
TSTEP,22, 10, 10.0
$ Defines Magnitude vs. Frequency
$TABLEx TableID         InterpType
$       Frequency       Magnitude       Frequency       Magnitude

TABLED1     8003  LINEAR  LINEAR
              0.      0.     10.      0.     20.      0.     30.      0.
             40.  10142.     50.      0.     60.      0.     70.      0.
            800.      0.    ENDT
$-------------------------------------------------------------------------------
$
$DLOAD  dLoadID         GlobalScale     Scale           LoadID
$       Scale           LoadID
$DLOAD*  32                          1.e0            1.e0 8000
$*

$	dloadid	global	scale	load_id
DLOAD	501	1.0	1.1	500
$-------------------------------------------------------------------------------


INCLUDE 'geom.inc'
MAT1     1      2.9+7   1.1+7   .32     .283

$ Loads for Load Case : Default
SPCADD   2       123456
LOAD     123458 1.      1.       10000
$ Displacement Constraints of Load Set : 123456
SPC1     123456  123456  22      23      24      25
SPC1     123456     456  5       thru    13
$ Nodal Forces of Load Set : 10000
FORCE    10000   13      0      10000.   0.      0.     1.
$ Referenced Coordinate Frames
$ global xyz
CORD2R   1       0       0.      0.      0.      0.      0.      1.
         1.      0.      0.
ENDDATA 58e050da
