$EXECUTIVE CONTROL DECK
SOL 123  $ made up solution
CEND
$CASE CONTROL DECK
SET 101 = 61 THRU 69
SET 102 = 1 THRU 6
STRESS(PLOT,PUNCH) = 5
INCLUDE 'testB.bdf'
$back from testB
DISP(PLOT,PUNCH) = 5
BEGIN BULK
GRID,1,
$SPOINTS
SPOINT,11
$ELEMENTS_WITH_NO_PROPERTIES (PID=0 and unanalyzed properties)
CONM1          1      11
          17400.                          4.37+7
                  4.35+9
CHBDYG         2           AREA6
               1      13      11       7      12       6
CELAS2  3       1.-10   12      5
CMASS2  111     1.3447  102     3
CMASS1  120     120     200     5
CMASS2      2005    5.-8      44       5
CELAS2  7001    1.0+6                   1002    1
CQUAD   16410   16411   16411   16412   16413   16414   16415   16416   +QD1
+QD1    16417   16418   16419
$UNASSOCIATED_PROPERTIES
PBUSH          1       K 100000.
                     RCV     1.5      1.      1.      1.
PCOMPG   2      -2.885          58.      STRN
         1001    795    .17     45.001   YES
         1002    796    5.      .001     YES
         1003    795    .3      45.001   YES
         1004    795    .3      45.001   YES
PCOMPG  3       -13.            50.     TSAI    20.     0.      
        1002    3       .5      0.      YES     
        1003    4       1.      -45.    YES     
        1004    2       .25     -90.    YES     
        1005    2       .25     -90.    YES     
        1006    4       1.      -45.    YES     
        1007    3       .5      0.      YES     
        1008    1       .125    45.     YES     
        1033    5       1.25    -45.    YES     
        1034    7       5.      -45.    YES     
        1035    8       10.     -45.    YES     
        1036    6       2.5     -45.    YES     
        1073    1       .125    45.     YES     
        1074    3       .5      0.      YES     
        1075    4       1.      -45.    YES     
        1076    2       .25     -90.    YES     
        1077    2       .25     -90.    YES     
        1078    4       1.      -45.    YES     
        1079    3       .5      0.      YES     
PBCOMP  5       9       12.                                             P51
+51                                                     5               P52
+52     0.0     1.633   .125                                            P53
+53     0.866   1.1547  .125                                            P54
+54     1.2247  0.0     .125                                            P55
+55     0.866   -1.1547 .125                                            P56
+56     0.0     -1.633  .125                                            P57
+57     -0.866  -1.1547 .125                                            P58
+58     -1.2247 0.0     .125                                            P59
+59     -0.866  1.1547  .125
$PBARL    6       10              DBOX     
$+       5.5     3.0     2.75    1.45    2.4
$+
PBARL   9       1               bar
	5.0	40.0
PBARL    10      1       	rod
	.3
PBARL	11	1		cross
	.4	.1	.6	.1
PCOMPG   55     -1.65
         1001    2      .275     0.      YES
         1002    2      .275     0.      YES
         1003    2      .275     0.      YES
         1004    2      .275     0.      YES
         1005    2      .275    45.      YES
         1006    2      .275    45.      YES
         1007    2      .275    45.      YES
         1008    2      .275    45.      YES
         1009    2      .275     0.      YES
         1010    2      .275     0.      YES
         1011    2      .275     0.      YES
         1012    2      .275     0.      YES
PCOMPG   88     -1.78016        58.      STRN
         1094    769    .260144 -60.282  YES
         1093    769    .260144 -60.282  YES
         1092    769    .260144 -60.282  YES
         1088    765    .300001 -31.49   YES
         1087    765    .300001 -31.49   YES
         1047    769    .260395 -39.285  YES
         1039    770    .395    14.556   YES
         1010    769    .327089 -4.936   YES
         1008    769    .260027 -41.294  YES
         1006    770    .247159 -3.132   YES
         1004    769    .260068 82.112   YES
         1002    769    .260012 -48.392  YES
         1001    765    .170127 -36.966  YES
PBEAML       100     200             BOX
      , 40., 50., 5., 5.
pbeaml	101	2		box
	6.0	1.0	0.1	0.1
pbeaml	102	2		box
	6.0	1.0	0.1	0.1
pbush1d, 204, 1.e+5, 1000., , , , , , +pb1
+pb1, spring, table, 205, , , , , , +pb2
+pb2, damper, table, 206
PBARL    6666    10              BAR      
+       5.5     3.0
$MATERIALS
MAT1    1           1.+7                      .1
          25000.  25000.
MAT1    2         3.+7
MAT1    3       8.5977+63.2554+6        0.097464                        ALUMINUM
MAT2     4      2.0+11  1.427+9 0.      1.33+11 0.0     3.577+9   0.2
+        1.-5   1.-5    1.-5    50.
MAT3    5       .8      .8      .8      .05     .05     0.05       .2
                                1.-5    1.-5    1.-5    50.
MAT9    9       1.0                                             1.0
                                        1.0
        1.0                      1.0             1.0     0.01    1.-3
        1.-3    1.-3    1.-3    1.-3    1.-3    50.0
MAT10   25      1.      0.1
MAT10   26      0.1425  1.205-12
MATHP         27                   1500.
                       1       1
+
+
+
+
             100     200             400
CREEP          1   1100.           CRLAW
+CR1    111     6.985-6 2.444   7.032-4 0.1072  6.73-9  0.1479  3.0
CREEP         16                   TABLE     601     602     603
$RIGID ELEMENTS
rbe3,6, ,3,123456,1.0,123456,41,4,+rbe3
+rbe3,alpha,2.0e-4
RBE3          51             120       1.4408175     123   10006.9099256
             123   101061.309702     123   102061.590075     123   10306
        .7494812    1235   10806
RBE3          52             121       2.4408175     123   10706.9099256
             123   106061.309702     123   105061.590075     123   10406
        .7494812    1234   10806
RBE3         123              50       5      1.     123       4       6
              40      60
              UM       4       3
           ALPHA      1.
RBE3         307               3  123456      1.    1234   31201     .25
RBE1        1001    1000  123456
              UM    1002     123    1003     123    1004     123
                    1005     123    1006     123    1008     123
                    1009     123    1010     123    1011     123
                    1012     123
RBE3       12225           12043  123456      1.     123    2573    2574
            2575    2576
$LOADS
PLOAD4         1    1001  -4005.
DLOAD          3      1.      1.      10      0.      10
QHBDY   10      AREA4   70.             30000   31000   31100   30100
PLOAD2        13      1. 2100001    THRU 2100100
QBDY3   33      20.0            1       thru    8
QBDY3         34     20.               1    THRU       7      BY       2
              10    THRU      40      BY       5      42      45    THRU
              48
QBDY3         35     20.               1       2       3       4       5
               6       7       8
TLOAD2  310     320             1       0.      .10472  4.77465 -90.
        0.0     0.0
QBDY3,500,50000.0,,10,THRU,60,BY,10
PLOAD4       510     101      5.                            THRU     112
$DYNAMIC
EIGRL          1      0.    800.       6       4
          NUMS=4
EIGB     5      INV     0.0     2.      20      2       2
EIGC    10      CLAN    MAX                     1.E-12
                                                        20
EIGC    40      CLAN    MAX                     1.E-12
        0.0     0.0                                     5
        0.0      5.0                                    5
        0.0     10.0                                    5
        5.0      5.0                                    5
        0.0     20.0                                    5
        20.0    10.0                                    5
        10.0    10.0                                    5
NLPARM         1     100            AUTO       1      40       P     ALL+
+                  0.010                                                +
+              9
NLPARM        2       10           AUTO      5      25        PW      NO
             .01     .01     .01
$THERMAL
$CHBDYP,21,,,,,110,111
$OPTIMIZATION
DCONSTR        1      16-999999.1000000.
DDVAL	10	0.1	0.5	
	1.0	THRU	100. 	BY	1.0
DRESP2,1,LBUCK,5,3
,DESVAR,101,3,4,5,1,205,209
,,201
,DNODE,14,1,4,1,22,3
,,2,1,43,1
,DRESP1,14,1,4,22,6,33,2
,DRESP2,50,51
,DTABLE,PI,YM,L
,DVCREL1,201,202
,DVCREL2,501
,DVMREL1,301
,DVMREL2,601,602,603
,DVPREL1,101,102
,DVPREL2,401,402
DRESP2  16      SUMFORC 1
        DRESP1  14      15
DVMREL1        1    MAT1       1       E
              30  1.44+9
DVPREL2 11      PBAR    3       6                       2
        DESVAR  5       6
DVPREL2,12,     PBAR,   3,      5,      1.0-6,  ,       101,    ,       +
+,      DESVAR, 3,      ,       ,       ,       ,       ,       ,       +
+,      DTABLE, X3INIT, I1INIT
DOPTPRM,P1,1,P2,15,IPRINT,7
DOPTPRM APRCOD  2       IPRINT  0       DESMAX  8       DELP    0.50
        DPMIN   0.50    P1      3       P2      4
DOPTPRM IPRINT  3       DESMAX  15      DELP    0.5	P1	1	
	P2	15		
$TABLES
TABLED1        1  LINEAR  LINEAR
              1.      1.      2.      2.      3.      3.    ENDT
TABLED1      310  LINEAR  LINEAR
              0.      1. 200000.      1.    ENDT
$SETS
ASET1   3        1      THRU     8
ASET1   3       10      THRU    16
SESET   0       1       THRU    10
$REJECT_LINES
DEQATN  2       F(A,B)=B*A*A*A/12.0
DSCREEN STRESS  -100.   100
DSCREEN LAMA    -100.0
INCLUDE 'testC.bdf'
$BROKEN CARDS
ACCEL   1               .267261 .534522 .801784 X                       +
+       0.0     -32.2   4.0     -161.0
accel   999     888      0.977   0.877   0.677  Z                       +
+       0.0     10.1    5.0      100.1   10.0    1.1     20.0    2.1 
ACCEL   2       22      .267261 .534522 .801784 Y                       +
+       0.0     -32.2   -4.0    -161.0
ENDDATA
