$ NASTRAN input file created by the Patran 2012.2 64-Bit input file
$ translator on December  13, 2012 at 19:19:21.
$ Direct Text Input for Nastran System Cell Section
$ Direct Text Input for File Management Section
$ Direct Text Input for Executive Control
$ Buckling Analysis, Database
SOL 105
CEND
$ Direct Text Input for Global Case Control Data
$NLOPRM OUTCTRL=(SOLUTION,INTERM), MPCPCH=(OTIME,STEP)
$ Elements (and connectors) for group : FEM_A_Stringer
SET 1 = 9905 THRU 10563,10564
$ Nodes for group : FEM_A_Stringer
SET 2 = 11031 THRU 11925,11926
TITLE = MD Nastran job created on 27-Oct-11 at 07:02:41
ECHO = NONE
SUBCASE 1
   SUBTITLE=bend_A1
   SPC = 2
   LOAD = 2
   DISPLACEMENT(PLOT,SORT1,REAL)=ALL
   SET 3 = 1
   GPSTRESS = 3
   STRESS(PRINT,PLOT,SORT1,REAL,VONMISES,BILIN)=ALL
   STRFIELD(PRINT,PLOT,SORT1,REAL) = ALL
   FORCE(PRINT,PLOT,REAL) = ALL
SUBCASE 2
   SUBTITLE=bend_A1
   SPC = 2
   METHOD = 1
   VECTOR(PRINT,PLOT,SORT1,REAL)=ALL
   STRESS(PRINT,PLOT,SORT1,REAL,VONMISES,BILIN)=ALL
   STRFIELD(PRINT,PLOT,SORT1,REAL) = ALL
   FORCE(PRINT,PLOT,REAL) = ALL
$ Direct Text Input for this Subcase
OUTPUT(POST)
$ Elements (and connectors) for group : FEM_A_Stringer
SET 4 = 9905 THRU 10563,10564
SURFACE 1 SET 4,FIBRE ALL,SYSTEM CORD 1,AXIS X1,NORMAL X3,
TOPOLOGICAL ,BRANCH NOBREAK
BEGIN BULK
$ Direct Text Input for Bulk Data
PARAM    POST    -2
PARAM   PRTMAXIM YES
EIGRL    1       0.              10      0
$ Elements and Element Properties for region : SKIN
PSHELL   1       1      3.       1               1
$ Pset: "SKIN" will be imported as: "pshell.1"
CQUAD4   11271   1       11255   11256   12752   12751
CQUAD4   11272   1       11256   11257   12753   12752
CQUAD4   11273   1       11257   11258   12754   12753
CQUAD4   11274   1       11258   11259   12755   12754
CQUAD4   11275   1       11259   11260   12756   12755
CQUAD4   11276   1       11260   11261   12757   12756
CQUAD4   11277   1       11261   11262   12758   12757
CQUAD4   11278   1       11262   11263   12759   12758
CQUAD4   11279   1       11263   11264   12760   12759
CQUAD4   11280   1       11264   11265   12761   12760
CQUAD4   11281   1       11265   11266   12762   12761
CQUAD4   11282   1       11266   11267   12763   12762
CQUAD4   11283   1       11267   11268   12764   12763
CQUAD4   11284   1       11268   11269   12765   12764
CQUAD4   11285   1       11269   11270   12766   12765
CQUAD4   11286   1       11270   11271   12767   12766
CQUAD4   11287   1       11271   11272   12768   12767
CQUAD4   11288   1       11272   11273   12769   12768
CQUAD4   11289   1       11273   11274   12770   12769
CQUAD4   11290   1       11274   11275   12771   12770
$ ... 2125 like lines cut
CTRIA3   14122   1       15866   11031   11032
CQUAD4   14123   1       15866   11032   11033   15865
CQUAD4   14124   1       15865   11033   11034   15864
CQUAD4   14125   1       15864   11034   11035   15863
CQUAD4   14126   1       15863   11035   11036   15862
CQUAD4   14127   1       15862   11036   11037   15861
CQUAD4   14128   1       11086   15879   15880   11085
CQUAD4   14129   1       15879   15878   15881   15880
CQUAD4   14130   1       15878   15877   15882   15881
CQUAD4   14131   1       15877   15876   15883   15882
CQUAD4   14132   1       15876   15875   15884   15883
CQUAD4   14133   1       15875   15874   15885   15884
CQUAD4   14134   1       15874   15873   15886   15885
CQUAD4   14135   1       15873   15872   15887   15886
CQUAD4   14136   1       15872   15871   15888   15887
CQUAD4   14137   1       15871   15870   15889   15888
CQUAD4   14138   1       15870   15869   15890   15889
CQUAD4   14139   1       15869   15868   15891   15890
CQUAD4   14140   1       15868   15867   15815   15891
CQUAD4   14141   1       11037   11038   15860   15861
CQUAD4   14142   1       11038   11039   15892   15860
$ ... 279 like lines cut
CTRIA3   14422   1       16126   16082   16083
CQUAD4   14423   1       16098   16099   16127   16145
CQUAD4   14424   1       16097   16098   16145   16146
CQUAD4   14425   1       16096   16097   16146   16147
CQUAD4   14426   1       16095   16096   16147   16148
CQUAD4   14427   1       16094   16095   16148   16100
CQUAD4   14428   1       16101   16100   16148   16149
CQUAD4   14429   1       16102   16101   16149   16150
CQUAD4   14430   1       16103   16102   16150   16151
CQUAD4   14431   1       16104   16103   16151   16152
CQUAD4   14432   1       16105   16104   16152   16153
CQUAD4   14433   1       16106   16105   16153   16154
CQUAD4   14434   1       16107   16106   16154   16155
CQUAD4   14435   1       16108   16107   16155   16156
CQUAD4   14436   1       16109   16108   16156   16157
CQUAD4   14437   1       16110   16109   16157   16158
CQUAD4   14438   1       16111   16110   16158   16159
CQUAD4   14439   1       16112   16111   16159   16160
CQUAD4   14440   1       16113   16112   16160   16161
CQUAD4   14441   1       16114   16113   16161   16162
CQUAD4   14442   1       16115   16114   16162   16141
$ ... 21 like lines cut
CTRIA3   14464   1       16140   16141   16162
CQUAD4   14465   1       16128   16129   16175   16165
CQUAD4   14466   1       16129   16130   16176   16175
CQUAD4   14467   1       16130   16131   16177   16176
CQUAD4   14468   1       16131   16132   16178   16177
CQUAD4   14469   1       16132   16133   16179   16178
CQUAD4   14470   1       16133   16134   16180   16179
CQUAD4   14471   1       16134   16135   16181   16180
CQUAD4   14472   1       16135   16136   16173   16181
CQUAD4   14473   1       16173   16136   16137   16174
CQUAD4   14474   1       16173   16157   16182   16181
CQUAD4   14475   1       16182   16172   16180   16181
CQUAD4   14476   1       16163   16164   16183   16166
CQUAD4   14477   1       16164   16165   16175   16183
CQUAD4   14478   1       16167   16166   16183   16184
CQUAD4   14479   1       16168   16167   16184   16176
CQUAD4   14480   1       16169   16168   16176   16177
CQUAD4   14481   1       16170   16169   16177   16178
CQUAD4   14482   1       16179   16180   16172   16171
CQUAD4   14483   1       16171   16170   16178   16179
CQUAD4   14484   1       16176   16184   16183   16175
CQUAD4   14485   1       15896   15942   15941   15895
CQUAD4   14486   1       15940   15939   15893   15894
CQUAD4   14487   1       15894   15895   15941   15940
CTRIA3   14488   1       16185   11758   11757
CQUAD4   14489   1       16185   11757   11756   16186
CQUAD4   14490   1       16186   11756   11755   16187
CQUAD4   14491   1       16187   11755   11754   16188
CQUAD4   14492   1       16188   11754   11753   16189
CQUAD4   14493   1       16189   11753   11752   16190
CQUAD4   14494   1       11703   16249   16250   11704
CQUAD4   14495   1       16249   16248   16251   16250
CQUAD4   14496   1       16248   16247   16252   16251
CQUAD4   14497   1       16247   16246   16253   16252
CQUAD4   14498   1       16246   16245   16254   16253
CQUAD4   14499   1       16245   16244   16255   16254
CQUAD4   14500   1       16244   16243   16256   16255
CQUAD4   14501   1       16243   16242   16257   16256
CQUAD4   14502   1       16242   16241   16258   16257
CQUAD4   14503   1       16241   16240   16259   16258
CQUAD4   14504   1       16240   16239   16260   16259
CQUAD4   14505   1       16239   16238   16261   16260
CQUAD4   14506   1       16238   16237   16236   16261
CQUAD4   14507   1       11705   11704   16250   16262
CQUAD4   14508   1       11706   11705   16262   16263
$ ... 321 like lines cut
CTRIA3   14830   1       16547   16528   16529
CQUAD4   14831   1       16527   16528   16555   16549
CQUAD4   14832   1       16526   16527   16549   16550
CQUAD4   14833   1       16525   16526   16550   16551
CQUAD4   14834   1       16524   16525   16551   16552
CQUAD4   14835   1       16523   16524   16552   16553
CQUAD4   14836   1       16522   16523   16553   16554
CQUAD4   14837   1       16521   16522   16554   16539
CQUAD4   14838   1       16528   16547   16546   16555
CQUAD4   14839   1       16537   16538   16556   16540
CQUAD4   14840   1       16538   16539   16554   16556
CQUAD4   14841   1       16541   16540   16556   16557
CQUAD4   14842   1       16542   16541   16557   16553
CQUAD4   14843   1       16543   16542   16553   16552
CQUAD4   14844   1       16544   16543   16552   16551
CQUAD4   14845   1       16544   16551   16550   16545
CQUAD4   14846   1       16546   16545   16549   16555
CTRIA3   14847   1       16545   16550   16549
CQUAD4   14848   1       16553   16557   16556   16554
CQUAD4   14849   1       16520   16488   16489   16490
CQUAD4   14850   1       16302   16301   16399   16345
CQUAD4   14851   1       16345   16346   16303   16302
CQUAD4   14852   1       16464   16463   16520   16490
CQUAD4   14853   1       16490   16491   16465   16464
CQUAD4   14854   1       16191   16190   11752   11751
CQUAD4   14855   1       11751   11750   16351   16191
CQUAD4   14856   1       16351   16350   16192   16191
$ Elements and Element Properties for region : STRINGER
PSHELL   2       1      2.       1               1
$ Pset: "STRINGER" will be imported as: "pshell.2"
CQUAD4   9905    2       11031   11032   11088   11087   0.
CQUAD4   9906    2       11032   11033   11089   11088   0.
CQUAD4   9907    2       11033   11034   11090   11089   0.
CQUAD4   9908    2       11034   11035   11091   11090   0.
CQUAD4   9909    2       11035   11036   11092   11091   0.
CQUAD4   9910    2       11036   11037   11093   11092   0.
CQUAD4   9911    2       11037   11038   11094   11093   0.
CQUAD4   9912    2       11038   11039   11095   11094   0.
CQUAD4   9913    2       11039   11040   11096   11095   0.
CQUAD4   9914    2       11040   11041   11097   11096   0.
CQUAD4   9915    2       11041   11042   11098   11097   0.
CQUAD4   9916    2       11042   11043   11099   11098   0.
CQUAD4   9917    2       11043   11044   11100   11099   0.
CQUAD4   9918    2       11044   11045   11101   11100   0.
CQUAD4   9919    2       11045   11046   11102   11101   0.
CQUAD4   9920    2       11046   11047   11103   11102   0.
CQUAD4   9921    2       11047   11048   11104   11103   0.
CQUAD4   9922    2       11048   11049   11105   11104   0.
CQUAD4   9923    2       11049   11050   11106   11105   0.
CQUAD4   9924    2       11050   11051   11107   11106   0.
$ ... 640 like lines cut
$ Referenced Material Records
$ Material Record : ALU
$ Description of Material : Date: 27-Oct-11           Time: 06:50:38
MAT1     1      72000.          .35     2.7-9
$ Nodes of Group : FEM_A1
GRID*    11031           1              -145.524        -1.42569-13
*       582.085          1
GRID*    11032           1              -130.531        -1.42569-13
*       582.085          1
GRID*    11033           1              -115.538        -1.42569-13
*       582.085          1
GRID*    11034           1              -100.545        -1.42569-13
*       582.085          1
GRID*    11035           1              -85.5515        -1.42569-13
*       582.085          1
GRID*    11036           1              -70.5584        -1.4257-13
*       582.085          1
GRID*    11037           1              -55.5653        -1.4257-13
*       582.085          1
GRID*    11038           1              -40.5721        -1.4257-13
*       582.085          1
GRID*    11039           1              -25.579         -1.4257-13
*       582.085          1
GRID*    11040           1              -10.5859        -1.4257-13
*       582.085          1
GRID*    11041           1              4.4072          -1.4257-13
*       582.086          1
GRID*    11042           1              19.4003         -1.4257-13
*       582.086          1
GRID*    11043           1              34.3934         -1.4257-13
*       582.086          1
GRID*    11044           1              49.3865         -1.4257-13
*       582.086          1
GRID*    11045           1              64.3796         -1.4257-13
*       582.086          1
GRID*    11046           1              79.3728         -1.4257-13
*       582.086          1
GRID*    11047           1              94.3658         -1.4257-13
*       582.086          1
GRID*    11048           1              109.359         -1.4257-13
*       582.086          1
GRID*    11049           1              124.352         -1.42571-13
*       582.086          1
GRID*    11050           1              139.345         -1.42571-13
*       582.086          1
$ ... 72 like lines cut
GRID     11087   1      -145.52416.6667 582.085  1
GRID     11088   1      -130.53116.6667 582.085  1
GRID     11089   1      -115.53816.6667 582.085  1
GRID     11090   1      -100.54516.6667 582.085  1
GRID     11091   1      -85.551516.6667 582.085  1
GRID     11092   1      -70.558416.6667 582.085  1
GRID     11093   1      -55.565316.6667 582.085  1
GRID     11094   1      -40.572116.6667 582.085  1
GRID     11095   1      -25.579 16.6667 582.085  1
GRID     11096   1      -10.585916.6667 582.085  1
GRID     11097   1      4.4072  16.6667 582.086  1
GRID     11098   1      19.4003 16.6667 582.086  1
GRID     11099   1      34.3934 16.6667 582.086  1
GRID     11100   1      49.3865 16.6667 582.086  1
GRID     11101   1      64.3796 16.6667 582.086  1
GRID     11102   1      79.3728 16.6667 582.086  1
GRID     11103   1      94.3658 16.6667 582.086  1
GRID     11104   1      109.359 16.6667 582.086  1
GRID     11105   1      124.352 16.6667 582.086  1
GRID     11106   1      139.345 16.6667 582.086  1
$ ... 148 like lines cut
GRID*    11255           1              -97.016         -9.50461-14
*       388.057          1
GRID*    11256           1              -82.0228        -9.50461-14
*       388.057          1
GRID*    11257           1              -67.0297        -9.50462-14
*       388.057          1
GRID*    11258           1              -52.0366        -9.50463-14
*       388.057          1
GRID*    11259           1              -37.0435        -9.50464-14
*       388.057          1
GRID*    11260           1              -22.0504        -9.50465-14
*       388.057          1
GRID*    11261           1              -7.05731        -9.50465-14
*       388.057          1
GRID*    11262           1              7.93586         -9.50466-14
*       388.057          1
GRID*    11263           1              22.929          -9.50467-14
*       388.057          1
GRID*    11264           1              37.9221         -9.50467-14
*       388.057          1
GRID*    11265           1              52.9152         -9.50468-14
*       388.057          1
GRID*    11266           1              67.9083         -9.50469-14
*       388.057          1
GRID*    11267           1              82.9014         -9.5047-14
*       388.057          1
GRID*    11268           1              97.8945         -9.50471-14
*       388.058          1
GRID*    11269           1              112.888         -9.50471-14
*       388.058          1
GRID*    11270           1              127.881         -9.50472-14
*       388.058          1
GRID*    11271           1              142.874         -9.50473-14
*       388.058          1
GRID*    11272           1              157.867         -9.50474-14
*       388.058          1
GRID*    11273           1              172.86          -9.50474-14
*       388.058          1
GRID*    11274           1              187.853         -9.50475-14
*       388.058          1
$ ... 72 like lines cut
GRID     11311   1      -97.016 16.6667 388.057  1
GRID     11312   1      -82.022816.6667 388.057  1
GRID     11313   1      -67.029716.6667 388.057  1
GRID     11314   1      -52.036616.6667 388.057  1
GRID     11315   1      -37.043516.6667 388.057  1
GRID     11316   1      -22.050416.6667 388.057  1
GRID     11317   1      -7.0573116.6667 388.057  1
GRID     11318   1      7.93586 16.6667 388.057  1
GRID     11319   1      22.929  16.6667 388.057  1
GRID     11320   1      37.9221 16.6667 388.057  1
GRID     11321   1      52.9152 16.6667 388.057  1
GRID     11322   1      67.9083 16.6667 388.057  1
GRID     11323   1      82.9014 16.6667 388.057  1
GRID     11324   1      97.8945 16.6667 388.058  1
GRID     11325   1      112.888 16.6667 388.058  1
GRID     11326   1      127.881 16.6667 388.058  1
GRID     11327   1      142.874 16.6667 388.058  1
GRID     11328   1      157.867 16.6667 388.058  1
GRID     11329   1      172.86  16.6667 388.058  1
GRID     11330   1      187.853 16.6667 388.058  1
$ ... 148 like lines cut
GRID*    11479           1              -48.508         -4.7523-14
*       194.028          1
GRID*    11480           1              -33.5149        -4.75231-14
*       194.028          1
GRID*    11481           1              -18.5218        -4.75232-14
*       194.028          1
GRID*    11482           1              -3.52865        -4.75233-14
*       194.029          1
GRID*    11483           1              11.4645         -4.75234-14
*       194.029          1
GRID*    11484           1              26.4576         -4.75234-14
*       194.029          1
GRID*    11485           1              41.4507         -4.75235-14
*       194.029          1
GRID*    11486           1              56.4438         -4.75236-14
*       194.029          1
GRID*    11487           1              71.4369         -4.75236-14
*       194.029          1
GRID*    11488           1              86.43           -4.75237-14
*       194.029          1
GRID*    11489           1              101.423         -4.75238-14
*       194.029          1
GRID*    11490           1              116.416         -4.75239-14
*       194.029          1
GRID*    11491           1              131.409         -4.7524-14
*       194.029          1
GRID*    11492           1              146.403         -4.7524-14
*       194.029          1
GRID*    11493           1              161.396         -4.75241-14
*       194.029          1
GRID*    11494           1              176.389         -4.75242-14
*       194.029          1
GRID*    11495           1              191.382         -4.75243-14
*       194.029          1
GRID*    11496           1              206.375         -4.75243-14
*       194.03           1
GRID*    11497           1              221.368         -4.75244-14
*       194.029          1
GRID*    11498           1              236.361         -4.75245-14
*       194.03           1
$ ... 72 like lines cut
GRID     11535   1      -48.508 16.6667 194.028  1
GRID     11536   1      -33.514916.6667 194.028  1
GRID     11537   1      -18.521816.6667 194.028  1
GRID     11538   1      -3.5286516.6667 194.029  1
GRID     11539   1      11.4645 16.6667 194.029  1
GRID     11540   1      26.4576 16.6667 194.029  1
GRID     11541   1      41.4507 16.6667 194.029  1
GRID     11542   1      56.4438 16.6667 194.029  1
GRID     11543   1      71.4369 16.6667 194.029  1
GRID     11544   1      86.43   16.6667 194.029  1
GRID     11545   1      101.423 16.6667 194.029  1
GRID     11546   1      116.416 16.6667 194.029  1
GRID     11547   1      131.409 16.6667 194.029  1
GRID     11548   1      146.403 16.6667 194.029  1
GRID     11549   1      161.396 16.6667 194.029  1
GRID     11550   1      176.389 16.6667 194.029  1
GRID     11551   1      191.382 16.6667 194.029  1
GRID     11552   1      206.375 16.6667 194.03   1
GRID     11553   1      221.368 16.6667 194.029  1
GRID     11554   1      236.361 16.6667 194.03   1
$ ... 148 like lines cut
GRID*    11703           1              -1.10292-13      0.
*       -2.75736-14      1
GRID*    11704           1              14.9931         -7.83236-20
*       7.51713-5        1
GRID*    11705           1              29.9862         -1.56647-19
*       1.50343-4        1
GRID*    11706           1              44.9793         -2.35311-19
*       2.26902-4        1
GRID*    11707           1              59.9724         -3.13294-19
*       3.00685-4        1
GRID*    11708           1              74.9655         -3.91958-19
*       3.77244-4        1
GRID*    11709           1              89.9586         -4.70621-19
*       4.53804-4        1
GRID*    11710           1              104.952         -5.21639-19
*       4.17489-4        1
GRID*    11711           1              119.945         -5.99849-19
*       4.92197-4        1
GRID*    11712           1              134.938         -6.77153-19
*       5.63205-4        1
GRID*    11713           1              149.931         -7.56723-19
*       6.43465-4        1
GRID*    11714           1              164.924         -8.36293-19
*       7.23725-4        1
GRID*    11715           1              179.917         -9.1405-19
*       7.96583-4        1
GRID*    11716           1              194.91          -9.909-19
*       8.65741-4        1
GRID*    11717           1              209.904         -1.07047-18
*       9.46001-4        1
GRID*    11718           1              224.897         -1.15004-18
*       .00102626        1
GRID*    11719           1              239.89          -1.2278-18
*       .00109912        1
GRID*    11720           1              254.883         -1.30555-18
*       .00117198        1
GRID*    11721           1              269.876         -1.35612-18
*       .00113381        1
GRID*    11722           1              284.869         -1.43388-18
*       .00120667        1
$ ... 102 like lines cut
GRID     11774   1      224.897 16.6667 .0010263 1
GRID     11775   1      239.89  16.6667 .0010991 1
GRID     11776   1      254.883 16.6667 .001172  1
GRID     11777   1      269.876 16.6667 .0011338 1
GRID     11778   1      284.869 16.6667 .0012067 1
GRID     11779   1      299.862 16.6667 .0012795 1
GRID     11780   1      314.855 16.6667 .0013524 1
GRID     11781   1      329.848 16.6667 .0014326 1
GRID     11782   1      344.842 16.6667 .0015203 1
GRID     11783   1      359.835 16.6667 .0016006 1
GRID     11784   1      374.828 16.6667 .0016808 1
GRID     11785   1      389.821 16.6667 .0017389 1
GRID     11786   1      404.814 16.6667 .0017155 1
GRID     11787   1      419.807 16.6667 .0017884 1
GRID     11788   1      434.8   16.6667 .0018612 1
GRID     11789   1      449.793 16.6667 .0019415 1
GRID     11790   1      464.787 16.6667 .0020144 1
GRID     11791   1      479.78  16.6667 .0020872 1
GRID     11792   1      494.773 16.6667 .0021749 1
GRID     11793   1      509.766 16.6667 .0022477 1
$ ... 21 like lines cut
GRID*    11815           1              -1.10292-13     33.3333
*       -1.94093-14      1
GRID*    11816           1              14.9931         33.3333
*       7.51713-5        1
GRID*    11817           1              29.9862         33.3333
*       1.50343-4        1
GRID*    11818           1              44.9793         33.3333
*       2.26902-4        1
GRID*    11819           1              59.9724         33.3333
*       3.00685-4        1
GRID*    11820           1              74.9655         33.3333
*       3.77244-4        1
GRID*    11821           1              89.9586         33.3333
*       4.53804-4        1
GRID*    11822           1              104.952         33.3333
*       4.17489-4        1
GRID*    11823           1              119.945         33.3333
*       4.92197-4        1
GRID*    11824           1              134.938         33.3333
*       5.63205-4        1
GRID*    11825           1              149.931         33.3333
*       6.43465-4        1
GRID*    11826           1              164.924         33.3333
*       7.23725-4        1
GRID*    11827           1              179.917         33.3333
*       7.96583-4        1
GRID*    11828           1              194.91          33.3333
*       8.65741-4        1
GRID*    11829           1              209.904         33.3333
*       9.46001-4        1
GRID     11830   1      224.897 33.3333 .0010263 1
GRID     11831   1      239.89  33.3333 .0010991 1
GRID     11832   1      254.883 33.3333 .001172  1
GRID     11833   1      269.876 33.3333 .0011338 1
GRID     11834   1      284.869 33.3333 .0012067 1
GRID     11835   1      299.862 33.3333 .0012795 1
GRID     11836   1      314.855 33.3333 .0013524 1
GRID     11837   1      329.848 33.3333 .0014326 1
GRID     11838   1      344.842 33.3333 .0015203 1
GRID     11839   1      359.835 33.3333 .0016006 1
GRID     11840   1      374.828 33.3333 .0016808 1
GRID     11841   1      389.821 33.3333 .0017389 1
GRID     11842   1      404.814 33.3333 .0017155 1
GRID     11843   1      419.807 33.3333 .0017884 1
GRID     11844   1      434.8   33.3333 .0018612 1
GRID     11845   1      449.793 33.3333 .0019415 1
GRID     11846   1      464.787 33.3333 .0020144 1
GRID     11847   1      479.78  33.3333 .0020872 1
GRID     11848   1      494.773 33.3333 .0021749 1
GRID     11849   1      509.766 33.3333 .0022477 1
$ ... 21 like lines cut
GRID*    11871           1              -1.10292-13     50.
*       -1.53271-14      1
GRID*    11872           1              14.9931         50.
*       7.51713-5        1
GRID*    11873           1              29.9862         50.
*       1.50343-4        1
GRID*    11874           1              44.9793         50.
*       2.26902-4        1
GRID*    11875           1              59.9724         50.
*       3.00685-4        1
GRID*    11876           1              74.9655         50.
*       3.77244-4        1
GRID*    11877           1              89.9586         50.
*       4.53804-4        1
GRID*    11878           1              104.952         50.
*       4.17489-4        1
GRID*    11879           1              119.945         50.
*       4.92197-4        1
GRID*    11880           1              134.938         50.
*       5.63205-4        1
GRID*    11881           1              149.931         50.
*       6.43465-4        1
GRID*    11882           1              164.924         50.
*       7.23725-4        1
GRID*    11883           1              179.917         50.
*       7.96583-4        1
GRID*    11884           1              194.91          50.
*       8.65741-4        1
GRID*    11885           1              209.904         50.
*       9.46001-4        1
GRID     11886   1      224.897 50.     .0010263 1
GRID     11887   1      239.89  50.     .0010991 1
GRID     11888   1      254.883 50.     .001172  1
GRID     11889   1      269.876 50.     .0011338 1
GRID     11890   1      284.869 50.     .0012067 1
GRID     11891   1      299.862 50.     .0012795 1
GRID     11892   1      314.855 50.     .0013524 1
GRID     11893   1      329.848 50.     .0014326 1
GRID     11894   1      344.842 50.     .0015203 1
GRID     11895   1      359.835 50.     .0016006 1
GRID     11896   1      374.828 50.     .0016808 1
GRID     11897   1      389.821 50.     .0017389 1
GRID     11898   1      404.814 50.     .0017155 1
GRID     11899   1      419.807 50.     .0017884 1
GRID     11900   1      434.8   50.     .0018612 1
GRID     11901   1      449.793 50.     .0019415 1
GRID     11902   1      464.787 50.     .0020144 1
GRID     11903   1      479.78  50.     .0020872 1
GRID     11904   1      494.773 50.     .0021749 1
GRID     11905   1      509.766 50.     .0022477 1
$ ... 21 like lines cut
GRID*    12751           1              -100.747        -9.87017-14
*       402.982          1
GRID*    12752           1              -85.7542        -9.87017-14
*       402.982          1
GRID*    12753           1              -70.7611        -9.87018-14
*       402.982          1
GRID*    12754           1              -55.768         -9.87019-14
*       402.982          1
GRID*    12755           1              -40.7749        -9.8702-14
*       402.982          1
GRID*    12756           1              -25.7818        -9.87021-14
*       402.982          1
GRID*    12757           1              -10.7887        -9.87021-14
*       402.982          1
GRID*    12758           1              4.2045          -9.87022-14
*       402.982          1
GRID*    12759           1              19.1976         -9.87023-14
*       402.982          1
GRID*    12760           1              34.1907         -9.87023-14
*       402.982          1
GRID*    12761           1              49.1839         -9.87024-14
*       402.982          1
GRID*    12762           1              64.177          -9.87024-14
*       402.982          1
GRID*    12763           1              79.1702         -9.87025-14
*       402.982          1
GRID*    12764           1              94.1633         -9.87025-14
*       402.982          1
GRID*    12765           1              109.157         -9.87025-14
*       402.982          1
GRID*    12766           1              124.15          -9.87026-14
*       402.982          1
GRID*    12767           1              139.143         -9.87026-14
*       402.982          1
GRID*    12768           1              154.136         -9.87026-14
*       402.982          1
GRID*    12769           1              169.129         -9.87027-14
*       402.982          1
GRID*    12770           1              184.122         -9.87028-14
*       402.982          1
$ ... 5478 like lines cut
$ Loads for Load Case : bend_A1
SPCADD   2       1
LOAD     2      1.      1.       1
$ Displacement Constraints of Load Set : FIXED_BENDING_123456
SPC1     1       123456  11031   11087   11143   11199   11255   11311
         11367   11423   11479   11535   11591   11647   11703   11759
         11815   11871   12751   12807   12863   12919   12975   13031
         13087   13143   13199   13255   13311   13367   13535   13591
         13647   13703   13759   13815   13871   13927   13983   14039
         14095   14151   14319   14375   14431   14487   14543   14599
         14655   14711   14767   14823   14879   14935
SPC1     1       123456  16237   THRU    16249
$ Pressures of Total Load Set : BENDING
FORCE    1       11310          67.13    0.      0.     1.
FORCE    1       12806          67.13    0.      0.     1.
FORCE    1       12806          67.13    0.      0.     1.
FORCE    1       12862          67.13    0.      0.     1.
FORCE    1       12862          67.1295  0.      0.     1.
FORCE    1       12918          67.1295  0.      0.     1.
FORCE    1       12918          67.13    0.      0.     1.
FORCE    1       12974          67.13    0.      0.     1.
FORCE    1       12974          67.13    0.      0.     1.
FORCE    1       13030          67.13    0.      0.     1.
FORCE    1       13030          67.13    0.      0.     1.
FORCE    1       13086          67.13    0.      0.     1.
FORCE    1       13086          67.1295  0.      0.     1.
FORCE    1       13142          67.1295  0.      0.     1.
FORCE    1       13142          67.13    0.      0.     1.
FORCE    1       13198          67.13    0.      0.     1.
FORCE    1       13198          67.13    0.      0.     1.
FORCE    1       13254          67.13    0.      0.     1.
FORCE    1       13254          67.13    0.      0.     1.
FORCE    1       13310          67.13    0.      0.     1.
$ ... 84 like lines cut
$ Force or value sum: 6981.506226
$ Referenced Coordinate Frames
CORD2R*  1                              1.13687-13      1200.
*        0.             291.048         2364.17         -2.93915-13
*       1164.17         908.952         -4.7991-18
*
ENDDATA ba8a0a2b
