$ NASTRAN input file created by the Patran 2010 64-Bit input file
$ translator on August    13, 2010 at 09:04:11.
$ Direct Text Input for Nastran System Cell Section
$ Linear Static Analysis, Database
SOL 101
CEND
TITLE = MSC.NASTRAN JOB CREATED ON 15-JUN-10 AT 14:38:57
ECHO = NONE
SUBCASE 1
   TITLE=MSC.NASTRAN JOB CREATED ON 15-JUN-10 AT 14:38:57
   LOAD = 3
   DISPLACEMENT(SORT1,REAL)=ALL
   SPC = 2
   LINE = 999999
   SPCFORCES(SORT1,REAL)=ALL
   STRESS(SORT1,REAL,VONMISES,BILIN)=ALL
   SUBTITLE=DEFAULT
BEGIN BULK
PARAM    GRDPNT  0
PARAM    POST    -1
PARAM   PRTMAXIM YES
PARAM, MAXLINES, 999999
$ Nodes of the Entire Model
GRID     1              .5      -5.77-168.5
GRID     2              .511021 .01809058.5
GRID     3              .525726 .03325428.5
GRID     4              .543144 .04525928.5
GRID     5              .562094 .05442938.5
GRID     6              .581981 .06148798.5
GRID     7              .602267 .06701078.5
GRID     8              .622814 .07153598.5
GRID     9              .643484 .07547528.5
GRID     10             .664178 .07918238.5
GRID     11             .684914 .08292178.5
GRID     12             .705606 .08635958.5
GRID     13             .726415 .08945378.5
GRID     14             .747274 .09220638.5
GRID     15             .768164 .09462868.5
GRID     16             .789083 .09673488.5
GRID     17             .810028 .09853928.5
GRID     18             .831    .100056 8.5
GRID     19             .851997 .1013   8.5
GRID     20             .873017 .102285 8.5
$ ... 26007 like lines cut
$ Elements and Element Properties for region : cap
PSHELL   1       1      .5       1               1
$ Pset: "cap" will be imported as: "pshell.1"
CQUAD4   25601   1       80      26024   13120   81      0.     -.25
CQUAD4   25602   1       13042   25761   2       1       0.     -.25
CQUAD4   25603   1       13043   25762   25761   13042   0.     -.25
CQUAD4   25604   1       13044   25950   25762   13043   0.     -.25
CQUAD4   25605   1       13045   25763   25950   13044   0.     -.25
CQUAD4   25606   1       13046   25764   25763   13045   0.     -.25
CQUAD4   25607   1       13047   25765   25764   13046   0.     -.25
CQUAD4   25608   1       13048   25766   25765   13047   0.     -.25
CQUAD4   25609   1       13049   25767   25766   13048   0.     -.25
CQUAD4   25610   1       13050   25768   25767   13049   0.     -.25
CQUAD4   25611   1       13051   25769   25768   13050   0.     -.25
CQUAD4   25612   1       13052   25770   25769   13051   0.     -.25
CQUAD4   25613   1       13053   25771   25770   13052   0.     -.25
CQUAD4   25614   1       13054   25772   25771   13053   0.     -.25
CQUAD4   25615   1       13055   25773   25772   13054   0.     -.25
CQUAD4   25616   1       13056   25774   25773   13055   0.     -.25
CQUAD4   25617   1       13057   25775   25774   13056   0.     -.25
CQUAD4   25618   1       13058   25776   25775   13057   0.     -.25
CQUAD4   25619   1       13059   25777   25776   13058   0.     -.25
CQUAD4   25620   1       13060   25778   25777   13059   0.     -.25
$ ... 325 like lines cut
$ Elements and Element Properties for region : wall
PSHELL   2       1      .03      1               1
$ Pset: "wall" will be imported as: "pshell.2"
CQUAD4   1       2       1       2       83      82      0.     -.015
CQUAD4   2       2       2       3       84      83      0.     -.015
CQUAD4   3       2       3       4       85      84      0.     -.015
CQUAD4   4       2       4       5       86      85      0.     -.015
CQUAD4   5       2       5       6       87      86      0.     -.015
CQUAD4   6       2       6       7       88      87      0.     -.015
CQUAD4   7       2       7       8       89      88      0.     -.015
CQUAD4   8       2       8       9       90      89      0.     -.015
CQUAD4   9       2       9       10      91      90      0.     -.015
CQUAD4   10      2       10      11      92      91      0.     -.015
CQUAD4   11      2       11      12      93      92      0.     -.015
CQUAD4   12      2       12      13      94      93      0.     -.015
CQUAD4   13      2       13      14      95      94      0.     -.015
CQUAD4   14      2       14      15      96      95      0.     -.015
CQUAD4   15      2       15      16      97      96      0.     -.015
CQUAD4   16      2       16      17      98      97      0.     -.015
CQUAD4   17      2       17      18      99      98      0.     -.015
CQUAD4   18      2       18      19      100     99      0.     -.015
CQUAD4   19      2       19      20      101     100     0.     -.015
CQUAD4   20      2       20      21      102     101     0.     -.015
$ ... 25580 like lines cut
$ Referenced Material Records
$ Material Record : Al
$ Description of Material :
$MAT1     1      1.595+7 5.864+6 .36     4.143-4                         +E
$+E      75000.  75000.  75000.
MAT1     1      1.595+7 5.864+6 .36     0.1                             +E
+E      75000.  75000.  75000.
$ Loads for Load Case : DEFAULT.SC1
SPCADD   2       1
$LOAD     3      1.      1.       1      1.       4
LOAD     3      1.      1.       4  
$ Displacement Constraints of Load Set : spc1.1
SPC1     1       123456  12961   THRU    13041
SPC1     1       123456  25682   THRU    25760
$ Nodal Forces of Load Set : load-z
FORCE    4       26019   0      25000.   0.      0.     1.
$ Angular Velocity Loading of Load Set : rforce.1
$RFORCE   1       0       0      141.5   1.       0.      0.      1
$ Referenced Coordinate Frames
ENDDATA efcb30ff
