$ NASTRAN input file created by the Patran 2010 64-Bit input file
$ translator on August    13, 2010 at 09:04:11.
$ Direct Text Input for Nastran System Cell Section
$ Linear Static Analysis, Database
SOL 101
CEND
TITLE = MSC.NASTRAN JOB CREATED ON 15-JUN-10 AT 14:38:57
ECHO = NONE
SUBCASE 1
   TITLE=MSC.NASTRAN JOB CREATED ON 15-JUN-10 AT 14:38:57
   LOAD = 3
   DISPLACEMENT(SORT1,REAL)=ALL
   SPC = 2
   LINE = 999999
   SPCFORCES(SORT1,REAL)=ALL
   STRESS(SORT1,REAL,VONMISES,BILIN)=ALL
   SUBTITLE=DEFAULT
BEGIN BULK
PARAM    GRDPNT  0
PARAM    POST    -1
PARAM   PRTMAXIM YES
PARAM, MAXLINES, 999999
$ Nodes of the Entire Model
GRID     1              .5      -5.77-168.5
GRID     2              .511021 .01809058.5
GRID     3              .525726 .03325428.5
GRID     4              .543144 .04525928.5
GRID     5              .562094 .05442938.5
GRID     6              .581981 .06148798.5
GRID     7              .602267 .06701078.5
GRID     8              .622814 .07153598.5
GRID     9              .643484 .07547528.5
GRID     10             .664178 .07918238.5
GRID     11             .684914 .08292178.5
GRID     12             .705606 .08635958.5
GRID     13             .726415 .08945378.5
GRID     14             .747274 .09220638.5
GRID     15             .768164 .09462868.5
GRID     16             .789083 .09673488.5
GRID     17             .810028 .09853928.5
GRID     18             .831    .100056 8.5
GRID     19             .851997 .1013   8.5
GRID     20             .873017 .102285 8.5
GRID     21             .894021 .103025 8.5
GRID     22             .915075 .103535 8.5
GRID     23             .936065 .103829 8.5
GRID     24             .957123 .103924 8.5
GRID     25             .978148 .103832 8.5
GRID     26             .999189 .103568 8.5
GRID     27             1.02019 .103149 8.5
GRID     28             1.04126 .102585 8.5
GRID     29             1.06222 .101896 8.5
GRID     30             1.08321 .101093 8.5
GRID     31             1.10421 .100189 8.5
GRID     32             1.12522 .09919918.5
GRID     33             1.14623 .09813698.5
GRID     34             1.16726 .09701638.5
GRID     35             1.18823 .09585418.5
GRID     36             1.20926 .09465868.5
GRID     37             1.23021 .09345118.5
GRID     38             1.25124 .09223628.5
GRID     39             1.27218 .09103728.5
GRID     40             1.29321 .08985848.5
GRID     41             1.31417 .08872238.5
GRID     42             1.33514 .08760148.5
GRID     43             1.35615 .08643178.5
GRID     44             1.3771  .08521738.5
GRID     45             1.39812 .08394988.5
GRID     46             1.41907 .08263728.5
GRID     47             1.44009 .08126958.5
GRID     48             1.46102 .079856 8.5
GRID     49             1.48204 .07838528.5
GRID     50             1.50301 .07686468.5
GRID     51             1.52398 .075291 8.5
GRID     52             1.54495 .07366368.5
GRID     53             1.56591 .07198198.5
GRID     54             1.58686 .070245 8.5
GRID     55             1.60781 .06845248.5
GRID     56             1.62876 .06660348.5
GRID     57             1.6497  .06469718.5
GRID     58             1.67063 .06273318.5
GRID     59             1.69156 .06071058.5
GRID     60             1.71248 .05862878.5
GRID     61             1.73339 .056487 8.5
GRID     62             1.75429 .05428468.5
GRID     63             1.77519 .052021 8.5
GRID     64             1.79609 .04969558.5
GRID     65             1.81697 .04730728.5
GRID     66             1.83785 .04485518.5
GRID     67             1.85872 .04233898.5
GRID     68             1.87959 .03975818.5
GRID     69             1.90045 .03711178.5
GRID     70             1.92129 .03439928.5
GRID     71             1.94213 .03162  8.5
GRID     72             1.96296 .02877318.5
GRID     73             1.98378 .02585818.5
GRID     74             2.0046  .02287428.5
GRID     75             2.0254  .01982078.5
GRID     76             2.04619 .016697 8.5
GRID     77             2.06697 .01350238.5
GRID     78             2.08775 .01023598.5
GRID     79             2.10851 .00689728.5
GRID     80             2.12926 .00348558.5
GRID     81             2.15    2.257-168.5
GRID     82             .496876 -5.73-168.44689
GRID     83             .507938 .01815488.44688
GRID     84             .522701 .03337218.44688
GRID     85             .540185 .04541938.44688
GRID     86             .559207 .05462368.44688
GRID     87             .579166 .06170988.44688
GRID     88             .599526 .06725598.44688
GRID     89             .620143 .07180148.44688
GRID     90             .640882 .07575878.44688
GRID     91             .661646 .07948038.44688
GRID     92             .682454 .08323038.44688
GRID     93             .703221 .08667668.44688
GRID     94             .724104 .08977758.44688
GRID     95             .745039 .09253538.44688
GRID     96             .766004 .09496148.44688
GRID     97             .786998 .09707048.44688
GRID     98             .80802  .09887698.44688
GRID     99             .829068 .100395 8.44688
GRID     100            .85014  .10164  8.44688
GRID     101            .871236 .102626 8.44688
GRID     102            .892316 .103366 8.44688
GRID     103            .913446 .103878 8.44688
GRID     104            .934511 .104174 8.44688
GRID     105            .955645 .104271 8.44688
GRID     106            .976746 .104181 8.44688
GRID     107            .997862 .10392  8.44688
GRID     108            1.01894 .103503 8.44688
GRID     109            1.04008 .10294  8.44688
GRID     110            1.06112 .102253 8.44688
GRID     111            1.08219 .10145  8.44688
GRID     112            1.10326 .100547 8.44688
GRID     113            1.12434 .09955748.44688
GRID     114            1.14544 .09849478.44688
GRID     115            1.16653 .09737318.44688
GRID     116            1.18758 .09620938.44688
GRID     117            1.20868 .09501168.44688
GRID     118            1.22971 .09380118.44688
GRID     119            1.25081 .09258258.44688
GRID     120            1.27184 .091379 8.44687
GRID     121            1.29294 .090195 8.44687
GRID     122            1.31397 .08905278.44687
GRID     123            1.33501 .08792488.44687
GRID     124            1.35611 .08674798.44687
GRID     125            1.37713 .085526 8.44687
GRID     126            1.39823 .08425098.44687
GRID     127            1.41925 .08293058.44687
GRID     128            1.44034 .081555 8.44687
GRID     129            1.46136 .08013358.44687
GRID     130            1.48245 .07865488.44687
GRID     131            1.5035  .07712638.44687
GRID     132            1.52454 .07554498.44687
GRID     133            1.54558 .07390998.44687
GRID     134            1.56662 .07222078.44687
GRID     135            1.58765 .07047668.44687
GRID     136            1.60868 .068677 8.44687
GRID     137            1.62969 .06682128.44687
GRID     138            1.65071 .06490868.44687
GRID     139            1.67172 .062938 8.44687
GRID     140            1.69272 .06090898.44687
GRID     141            1.71371 .05882048.44687
GRID     142            1.7347  .05667198.44687
GRID     143            1.75568 .05446268.44687
GRID     144            1.77666 .052192 8.44687
GRID     145            1.79763 .04985918.44687
GRID     146            1.81859 .04746348.44687
GRID     147            1.83954 .04500378.44687
GRID     148            1.86049 .04247978.44687
GRID     149            1.88143 .03989078.44687
GRID     150            1.90236 .037236 8.44687
GRID     151            1.92329 .03451498.44687
GRID     152            1.9442  .03172688.44686
GRID     153            1.96511 .02887088.44686
GRID     154            1.986   .02594648.44686
GRID     155            2.00689 .02295278.44686
GRID     156            2.02777 .01988918.44686
GRID     157            2.04863 .01675498.44686
GRID     158            2.06949 .01354948.44686
GRID     159            2.09034 .01027188.44686
GRID     160            2.11117 .00692158.44686
GRID     161            2.132   .00349798.44686
GRID     162            2.15281 2.242-168.44686
GRID     163            .493751 -5.70-168.39376
GRID     164            .504855 .01821918.39376
GRID     165            .519675 .03349  8.39376
GRID     166            .537225 .04557948.39376
GRID     167            .556319 .05481798.39376
GRID     168            .576352 .06193178.39376
GRID     169            .596784 .06750118.39376
GRID     170            .617472 .072067 8.39376
GRID     171            .63828  .07604228.39376
GRID     172            .659113 .07977848.39376
GRID     173            .679994 .08353898.39376
GRID     174            .700836 .08699388.39376
GRID     175            .721794 .09010138.39376
GRID     176            .742804 .09286438.39376
GRID     177            .763844 .09529438.39376
GRID     178            .784914 .09740618.39376
GRID     179            .806011 .09921458.39376
GRID     180            .827135 .100734 8.39376
GRID     181            .848283 .10198  8.39376
GRID     182            .869455 .102967 8.39375
GRID     183            .89061  .103708 8.39375
GRID     184            .911816 .104221 8.39375
GRID     185            .932957 .104519 8.39375
GRID     186            .954167 .104618 8.39375
GRID     187            .975343 .104531 8.39375
GRID     188            .996535 .104272 8.39375
GRID     189            1.01769 .103856 8.39375
GRID     190            1.03891 .103296 8.39375
GRID     191            1.06002 .10261  8.39375
GRID     192            1.08116 .101808 8.39375
GRID     193            1.10231 .100905 8.39375
GRID     194            1.12347 .09991578.39375
GRID     195            1.14464 .09885268.39375
GRID     196            1.16581 .09773  8.39375
GRID     197            1.18693 .09656468.39375
GRID     198            1.20811 .09536468.39375
GRID     199            1.22921 .09415118.39375
GRID     200            1.25039 .09292898.39375
GRID     201            1.27149 .09172098.39375
GRID     202            1.29267 .09053158.39375
GRID     203            1.31377 .089383 8.39375
GRID     204            1.33489 .08824828.39375
GRID     205            1.35606 .087064 8.39375
GRID     206            1.37716 .08583478.39375
GRID     207            1.39834 .08455198.39375
GRID     208            1.41943 .08322388.39375
GRID     209            1.4406  .08184048.39375
GRID     210            1.46169 .080411 8.39375
GRID     211            1.48285 .07892448.39375
GRID     212            1.50398 .07738818.39375
GRID     213            1.5251  .07579888.39375
GRID     214            1.54622 .07415618.39375
GRID     215            1.56733 .07245948.39375
GRID     216            1.58843 .07070818.39375
GRID     217            1.60954 .06890158.39374
GRID     218            1.63063 .067039 8.39374
GRID     219            1.65172 .06512  8.39374
GRID     220            1.6728  .063143 8.39374
GRID     221            1.69388 .06110738.39374
GRID     222            1.71495 .05901218.39374
GRID     223            1.73602 .05685688.39374
GRID     224            1.75707 .05464068.39374
GRID     225            1.77812 .05236288.39374
GRID     226            1.79917 .05002288.39374
GRID     227            1.8202  .04761968.39374
GRID     228            1.84123 .04515228.39374
GRID     229            1.86226 .04262048.39374
GRID     230            1.88327 .04002338.39374
GRID     231            1.90428 .03736038.39374
GRID     232            1.92528 .03463068.39374
GRID     233            1.94627 .03183368.39374
GRID     234            1.96725 .02896858.39374
GRID     235            1.98822 .02603468.39374
GRID     236            2.00918 .02303118.39374
GRID     237            2.03013 .01995748.39374
GRID     238            2.05107 .01681288.39374
GRID     239            2.072   .01359658.39374
GRID     240            2.09293 .01030788.39374
GRID     241            2.11384 .00694598.39374
GRID     242            2.13474 .00351028.39374
GRID     243            2.15563 2.228-168.39374
GRID     244            .490626 -5.66-168.34063
GRID     245            .501772 .01828348.34063
GRID     246            .516649 .03360788.34063
GRID     247            .534266 .04573958.34063
GRID     248            .553431 .05501218.34063
GRID     249            .573536 .06215358.34063
GRID     250            .594042 .06774638.34063
GRID     251            .6148   .07233258.34063
GRID     252            .635678 .07632568.34063
GRID     253            .656581 .08007658.34063
GRID     254            .677534 .08384768.34063
GRID     255            .69845  .08731098.34063
GRID     256            .719483 .09042528.34063
GRID     257            .740569 .09319338.34063
GRID     258            .761685 .09562728.34063
GRID     259            .782829 .09774188.34063
GRID     260            .804002 .09955228.34063
GRID     261            .825202 .101073 8.34063
GRID     262            .846426 .10232  8.34063
GRID     263            .867674 .103308 8.34063
GRID     264            .888905 .10405  8.34063
GRID     265            .910187 .104565 8.34063
GRID     266            .931404 .104864 8.34063
GRID     267            .952688 .104966 8.34063
GRID     268            .97394  .104881 8.34063
GRID     269            .995207 .104624 8.34063
GRID     270            1.01644 .10421  8.34063
GRID     271            1.03773 .103651 8.34063
GRID     272            1.05892 .102966 8.34063
GRID     273            1.08013 .102166 8.34063
GRID     274            1.10136 .101264 8.34063
GRID     275            1.1226  .100274 8.34063
GRID     276            1.14384 .09921048.34063
GRID     277            1.16508 .09808688.34063
GRID     278            1.18628 .09691988.34063
GRID     279            1.20754 .09571768.34063
GRID     280            1.22871 .09450118.34063
GRID     281            1.24997 .09327528.34062
GRID     282            1.27114 .09206278.34062
GRID     283            1.2924  .090868 8.34062
GRID     284            1.31358 .08971338.34062
GRID     285            1.33477 .08857168.34062
GRID     286            1.35601 .08738028.34062
GRID     287            1.37719 .08614348.34062
GRID     288            1.39844 .084853 8.34062
GRID     289            1.41961 .08351718.34062
GRID     290            1.44086 .08212588.34062
GRID     291            1.46202 .08068858.34062
GRID     292            1.48326 .079194 8.34062
GRID     293            1.50446 .07764988.34062
GRID     294            1.52566 .07605278.34062
GRID     295            1.54685 .07440248.34062
GRID     296            1.56804 .07269828.34062
GRID     297            1.58922 .07093968.34062
GRID     298            1.6104  .069126 8.34062
GRID     299            1.63157 .06725698.34062
GRID     300            1.65273 .06533148.34062
GRID     301            1.67389 .06334798.34062
GRID     302            1.69504 .06130568.34062
GRID     303            1.71619 .05920388.34062
GRID     304            1.73733 .05704178.34062
GRID     305            1.75846 .05481868.34062
GRID     306            1.77959 .05253378.34062
GRID     307            1.80071 .05018648.34062
GRID     308            1.82182 .04777588.34062
GRID     309            1.84292 .04530088.34062
GRID     310            1.86402 .04276118.34062
GRID     311            1.88511 .04015598.34062
GRID     312            1.90619 .03748468.34062
GRID     313            1.92727 .03474638.34062
GRID     314            1.94833 .03194048.34062
GRID     315            1.96939 .02906628.34061
GRID     316            1.99043 .02612288.34061
GRID     317            2.01147 .02310968.34061
GRID     318            2.0325  .02002588.34061
GRID     319            2.05351 .01687078.34061
GRID     320            2.07452 .01364368.34061
GRID     321            2.09552 .01034378.34061
GRID     322            2.1165  .00697028.34061
GRID     323            2.13748 .00352268.34061
GRID     324            2.15844 2.214-168.34061
GRID     325            .487501 -5.63-168.28751
GRID     326            .498688 .01834768.28751
GRID     327            .513623 .03372568.28751
GRID     328            .531306 .04589958.28751
GRID     329            .550543 .05520638.28751
GRID     330            .570721 .06237528.28751
GRID     331            .5913   .06799148.28751
GRID     332            .612129 .072598 8.28751
GRID     333            .633075 .07660918.28751
GRID     334            .654048 .08037468.28751
GRID     335            .675073 .08415628.28751
GRID     336            .696065 .087628 8.28751
GRID     337            .717173 .090749 8.28751
GRID     338            .738333 .09352238.28751
GRID     339            .759525 .09596018.28751
GRID     340            .780745 .09807758.28751
GRID     341            .801994 .09988988.28751
GRID     342            .823269 .101412 8.28751
GRID     343            .844569 .10266  8.28751
GRID     344            .865892 .103649 8.28751
GRID     345            .887199 .104392 8.28751
GRID     346            .908557 .104908 8.2875
GRID     347            .92985  .105209 8.2875
GRID     348            .95121  .105313 8.2875
GRID     349            .972537 .10523  8.2875
GRID     350            .99388  .104976 8.2875
GRID     351            1.01518 .104564 8.2875
GRID     352            1.03655 .104007 8.2875
GRID     353            1.05782 .103323 8.2875
GRID     354            1.07911 .102523 8.2875
GRID     355            1.10041 .101622 8.2875
GRID     356            1.12172 .100632 8.2875
GRID     357            1.14304 .09956838.2875
GRID     358            1.16436 .09844378.2875
GRID     359            1.18564 .09727518.2875
GRID     360            1.20696 .09607058.2875
GRID     361            1.22822 .09485118.2875
GRID     362            1.24955 .09362158.2875
GRID     363            1.2708  .09240468.2875
GRID     364            1.29212 .09120468.2875
GRID     365            1.31338 .09004368.2875
GRID     366            1.33465 .08889498.2875
GRID     367            1.35597 .08769638.2875
GRID     368            1.37722 .08645218.2875
GRID     369            1.39855 .085154 8.2875
GRID     370            1.41979 .08381038.2875
GRID     371            1.44111 .08241128.2875
GRID     372            1.46235 .080966 8.2875
GRID     373            1.48367 .07946358.2875
GRID     374            1.50494 .07791158.2875
GRID     375            1.52622 .07630678.2875
GRID     376            1.54748 .07464878.2875
GRID     377            1.56875 .072937 8.2875
GRID     378            1.59    .07117118.2875
GRID     379            1.61126 .06935058.2875
GRID     380            1.6325  .06747478.2875
GRID     381            1.65374 .06554288.2875
GRID     382            1.67498 .06355288.2875
GRID     383            1.69621 .061504 8.28749
GRID     384            1.71743 .05939558.28749
GRID     385            1.73864 .05722668.28749
GRID     386            1.75985 .05499668.28749
GRID     387            1.78105 .05270468.28749
GRID     388            1.80224 .05035  8.28749
GRID     389            1.82343 .047932 8.28749
GRID     390            1.84461 .04544938.28749
GRID     391            1.86579 .04290178.28749
GRID     392            1.88695 .04028858.28749
GRID     393            1.90811 .03760888.28749
GRID     394            1.92926 .034862 8.28749
GRID     395            1.9504  .03204738.28749
GRID     396            1.97153 .02916388.28749
GRID     397            1.99265 .026211 8.28749
GRID     398            2.01376 .023188 8.28749
GRID     399            2.03486 .02009418.28749
GRID     400            2.05595 .01692868.28749
GRID     401            2.07703 .01369078.28749
GRID     402            2.09811 .01037968.28749
GRID     403            2.11916 .00699468.28749
GRID     404            2.14021 .003535 8.28749
GRID     405            2.16125 2.2-16  8.28749
GRID     406            .484376 -5.59-168.23439
GRID     407            .495605 .01841198.23439
GRID     408            .510597 .03384348.23439
GRID     409            .528346 .04605958.23439
GRID     410            .547655 .05540048.23438
GRID     411            .567906 .06259698.23438
GRID     412            .588558 .06823658.23438
GRID     413            .609457 .07286358.23438
GRID     414            .630473 .07689258.23438
GRID     415            .651516 .08067268.23438
GRID     416            .672613 .08446498.23438
GRID     417            .693679 .08794528.23438
GRID     418            .714862 .09107288.23438
GRID     419            .736098 .09385138.23438
GRID     420            .757365 .096293 8.23438
GRID     421            .778661 .09841328.23438
GRID     422            .799985 .100228 8.23438
GRID     423            .821337 .101751 8.23438
GRID     424            .842711 .103    8.23438
GRID     425            .864111 .10399  8.23438
GRID     426            .885494 .104734 8.23438
GRID     427            .906927 .105251 8.23438
GRID     428            .928296 .105554 8.23438
GRID     429            .949732 .10566  8.23438
GRID     430            .971135 .10558  8.23438
GRID     431            .992553 .105327 8.23438
GRID     432            1.01393 .104917 8.23438
GRID     433            1.03538 .104362 8.23438
GRID     434            1.05672 .10368  8.23438
GRID     435            1.07808 .102881 8.23438
GRID     436            1.09946 .10198  8.23438
GRID     437            1.12085 .100991 8.23438
GRID     438            1.14224 .09992618.23438
GRID     439            1.16364 .09880058.23438
GRID     440            1.18499 .09763038.23438
GRID     441            1.20639 .09642358.23438
GRID     442            1.22772 .09520128.23438
GRID     443            1.24913 .09396798.23438
GRID     444            1.27045 .09274648.23438
GRID     445            1.29185 .09154118.23437
GRID     446            1.31319 .09037398.23437
GRID     447            1.33453 .08921838.23437
GRID     448            1.35592 .08801258.23437
GRID     449            1.37725 .08676088.23437
GRID     450            1.39865 .08545518.23437
GRID     451            1.41997 .08410368.23437
GRID     452            1.44137 .08269668.23437
GRID     453            1.46268 .08124358.23437
GRID     454            1.48408 .07973318.23437
GRID     455            1.50543 .07817328.23437
GRID     456            1.52678 .07656068.23437
GRID     457            1.54812 .07489498.23437
GRID     458            1.56946 .07317588.23437
GRID     459            1.59079 .07140268.23437
GRID     460            1.61212 .069575 8.23437
GRID     461            1.63344 .06769258.23437
GRID     462            1.65475 .06575428.23437
GRID     463            1.67606 .06375788.23437
GRID     464            1.69737 .06170248.23437
GRID     465            1.71867 .05958728.23437
GRID     466            1.73996 .05741168.23437
GRID     467            1.76124 .05517468.23437
GRID     468            1.78252 .05287558.23437
GRID     469            1.80378 .05051378.23437
GRID     470            1.82505 .04808828.23437
GRID     471            1.8463  .04559798.23437
GRID     472            1.86755 .04304248.23437
GRID     473            1.88879 .04042118.23437
GRID     474            1.91003 .03773318.23437
GRID     475            1.93125 .03497778.23437
GRID     476            1.95246 .03215418.23437
GRID     477            1.97367 .02926158.23437
GRID     478            1.99487 .02629938.23437
GRID     479            2.01605 .02326658.23437
GRID     480            2.03723 .02016258.23437
GRID     481            2.05839 .01698658.23437
GRID     482            2.07955 .01373788.23436
GRID     483            2.10069 .01041558.23436
GRID     484            2.12183 .00701898.23436
GRID     485            2.14295 .00354748.23436
GRID     486            2.16406 2.186-168.23436
GRID     487            .481251 -5.55-168.18126
GRID     488            .492521 .01847618.18126
GRID     489            .507571 .03396128.18126
GRID     490            .525386 .04621958.18126
GRID     491            .544767 .05559458.18126
GRID     492            .56509  .06281858.18126
GRID     493            .585815 .06848158.18126
GRID     494            .606785 .07312898.18126
GRID     495            .62787  .07717598.18126
GRID     496            .648983 .08097078.18126
GRID     497            .670153 .08477358.18126
GRID     498            .691294 .08826238.18126
GRID     499            .712551 .09139678.18126
GRID     500            .733862 .09418048.18126
GRID     501            .755205 .09662598.18126
GRID     502            .776576 .09874898.18126
GRID     503            .797976 .100565 8.18125
GRID     504            .819404 .10209  8.18125
GRID     505            .840854 .10334  8.18125
GRID     506            .86233  .104331 8.18125
GRID     507            .883788 .105076 8.18125
GRID     508            .905298 .105594 8.18125
GRID     509            .926742 .105899 8.18125
GRID     510            .948253 .106008 8.18125
GRID     511            .969732 .10593  8.18125
GRID     512            .991226 .105679 8.18125
GRID     513            1.01268 .105271 8.18125
GRID     514            1.0342  .104717 8.18125
GRID     515            1.05561 .104037 8.18125
GRID     516            1.07706 .103239 8.18125
GRID     517            1.09851 .102338 8.18125
GRID     518            1.11997 .101349 8.18125
GRID     519            1.14144 .100284 8.18125
GRID     520            1.16291 .09915748.18125
GRID     521            1.18434 .09798558.18125
GRID     522            1.20582 .09677658.18125
GRID     523            1.22722 .09555128.18125
GRID     524            1.2487  .09431428.18125
GRID     525            1.2701  .09308838.18125
GRID     526            1.29158 .09187768.18125
GRID     527            1.31299 .09070438.18125
GRID     528            1.33441 .08954178.18125
GRID     529            1.35588 .08832868.18125
GRID     530            1.37728 .08706958.18125
GRID     531            1.39876 .08575618.18125
GRID     532            1.42016 .08439698.18125
GRID     533            1.44163 .082982 8.18125
GRID     534            1.46302 .081521 8.18125
GRID     535            1.48448 .08000278.18125
GRID     536            1.50591 .07843498.18125
GRID     537            1.52733 .07681458.18125
GRID     538            1.54875 .07514128.18125
GRID     539            1.57016 .07341468.18125
GRID     540            1.59157 .07163418.18125
GRID     541            1.61298 .06979958.18125
GRID     542            1.63437 .06791038.18124
GRID     543            1.65577 .06596568.18124
GRID     544            1.67715 .06396278.18124
GRID     545            1.69853 .06190088.18124
GRID     546            1.7199  .05977898.18124
GRID     547            1.74127 .05759658.18124
GRID     548            1.76263 .05535258.18124
GRID     549            1.78398 .05304648.18124
GRID     550            1.80532 .05067738.18124
GRID     551            1.82666 .04824448.18124
GRID     552            1.84799 .04574648.18124
GRID     553            1.86932 .04318318.18124
GRID     554            1.89063 .04055378.18124
GRID     555            1.91194 .03785748.18124
GRID     556            1.93324 .03509348.18124
GRID     557            1.95453 .03226098.18124
GRID     558            1.97581 .02935928.18124
GRID     559            1.99708 .02638758.18124
GRID     560            2.01834 .02334498.18124
GRID     561            2.03959 .02023098.18124
GRID     562            2.06083 .01704448.18124
GRID     563            2.08206 .01378498.18124
GRID     564            2.10328 .01045148.18124
GRID     565            2.12449 .00704338.18124
GRID     566            2.14569 .00355988.18124
GRID     567            2.16688 2.172-168.18124
GRID     568            .478126 -5.52-168.12814
GRID     569            .489438 .01854038.12814
GRID     570            .504545 .03407898.12813
GRID     571            .522426 .04637938.12813
GRID     572            .541878 .05578858.12813
GRID     573            .562275 .06304018.12813
GRID     574            .583073 .06872658.12813
GRID     575            .604113 .07339428.12813
GRID     576            .625267 .07745938.12813
GRID     577            .646451 .08126878.12813
GRID     578            .667693 .08508218.12813
GRID     579            .688908 .08857948.12813
GRID     580            .710241 .09172058.12813
GRID     581            .731627 .09450948.12813
GRID     582            .753045 .09695878.12813
GRID     583            .774492 .09908458.12813
GRID     584            .795968 .100903 8.12813
GRID     585            .817471 .10243  8.12813
GRID     586            .838997 .10368  8.12813
GRID     587            .860549 .104671 8.12813
GRID     588            .882083 .105417 8.12813
GRID     589            .903668 .105937 8.12813
GRID     590            .925188 .106244 8.12813
GRID     591            .946775 .106355 8.12813
GRID     592            .968329 .106279 8.12813
GRID     593            .989898 .106031 8.12813
GRID     594            1.01143 .105625 8.12813
GRID     595            1.03303 .105073 8.12813
GRID     596            1.05451 .104393 8.12813
GRID     597            1.07603 .103596 8.12813
GRID     598            1.09756 .102697 8.12813
GRID     599            1.1191  .101707 8.12813
GRID     600            1.14064 .100642 8.12813
GRID     601            1.16219 .09951428.12813
GRID     602            1.18369 .09834088.12813
GRID     603            1.20525 .09712958.12813
GRID     604            1.22672 .09590128.12813
GRID     605            1.24828 .09466058.12813
GRID     606            1.26976 .09343018.12812
GRID     607            1.29131 .09221418.12812
GRID     608            1.31279 .09103468.12812
GRID     609            1.33429 .08986518.12812
GRID     610            1.35583 .08864488.12812
GRID     611            1.37731 .08737828.12812
GRID     612            1.39886 .08605728.12812
GRID     613            1.42034 .08469028.12812
GRID     614            1.44188 .08326748.12812
GRID     615            1.46335 .08179848.12812
GRID     616            1.48489 .08027228.12812
GRID     617            1.50639 .07869668.12812
GRID     618            1.52789 .07706848.12812
GRID     619            1.54939 .07538748.12812
GRID     620            1.57087 .07365348.12812
GRID     621            1.59236 .07186578.12812
GRID     622            1.61384 .070024 8.12812
GRID     623            1.63531 .06812818.12812
GRID     624            1.65678 .066177 8.12812
GRID     625            1.67824 .06416778.12812
GRID     626            1.69969 .06209918.12812
GRID     627            1.72114 .05997078.12812
GRID     628            1.74258 .05778148.12812
GRID     629            1.76402 .05553058.12812
GRID     630            1.78544 .05321738.12812
GRID     631            1.80686 .050841 8.12812
GRID     632            1.82828 .04840068.12812
GRID     633            1.84968 .045895 8.12812
GRID     634            1.87108 .04332398.12812
GRID     635            1.89248 .04068638.12812
GRID     636            1.91386 .03798178.12812
GRID     637            1.93523 .03520918.12812
GRID     638            1.9566  .03236788.12812
GRID     639            1.97795 .02945698.12812
GRID     640            1.9993  .02647578.12812
GRID     641            2.02063 .02342348.12812
GRID     642            2.04196 .02029928.12812
GRID     643            2.06327 .01710248.12812
GRID     644            2.08458 .013832 8.12812
GRID     645            2.10587 .01048748.12812
GRID     646            2.12716 .00706778.12811
GRID     647            2.14843 .00357228.12811
GRID     648            2.16969 2.158-168.12811
GRID     649            .475001 -5.48-168.07501
GRID     650            .486354 .01860468.07501
GRID     651            .501519 .03419668.07501
GRID     652            .519466 .04653928.07501
GRID     653            .53899  .05598248.07501
GRID     654            .559459 .06326178.07501
GRID     655            .58033  .06897148.07501
GRID     656            .601441 .07365968.07501
GRID     657            .622665 .07774268.07501
GRID     658            .643918 .08156678.07501
GRID     659            .665232 .08539088.07501
GRID     660            .686523 .08889658.07501
GRID     661            .70793  .09204438.07501
GRID     662            .729392 .09483848.07501
GRID     663            .750885 .09729168.07501
GRID     664            .772407 .09942028.07501
GRID     665            .793959 .101241 8.07501
GRID     666            .815538 .102769 8.07501
GRID     667            .83714  .10402  8.07501
GRID     668            .858767 .105012 8.07501
GRID     669            .880377 .105759 8.07501
GRID     670            .902039 .10628  8.075
GRID     671            .923634 .106589 8.075
GRID     672            .945297 .106702 8.075
GRID     673            .966926 .106629 8.075
GRID     674            .988571 .106383 8.075
GRID     675            1.01018 .105979 8.075
GRID     676            1.03185 .105428 8.075
GRID     677            1.05341 .10475  8.075
GRID     678            1.07501 .103954 8.075
GRID     679            1.09661 .103055 8.075
GRID     680            1.11822 .102065 8.075
GRID     681            1.13984 .101    8.075
GRID     682            1.16147 .09987118.075
GRID     683            1.18304 .098696 8.075
GRID     684            1.20467 .09748258.075
GRID     685            1.22623 .09625128.075
GRID     686            1.24786 .09500698.075
GRID     687            1.26941 .09377198.075
GRID     688            1.29104 .09255068.075
GRID     689            1.3126  .09136498.075
GRID     690            1.33417 .09018848.075
GRID     691            1.35579 .08896098.075
GRID     692            1.37734 .08768698.075
GRID     693            1.39897 .08635828.075
GRID     694            1.42052 .08498348.075
GRID     695            1.44214 .08355288.075
GRID     696            1.46368 .08207598.075
GRID     697            1.4853  .08054188.075
GRID     698            1.50688 .07895838.075
GRID     699            1.52845 .07732238.075
GRID     700            1.55002 .07563378.075
GRID     701            1.57158 .07389218.075
GRID     702            1.59314 .07209728.075
GRID     703            1.6147  .07024868.075
GRID     704            1.63625 .068346 8.075
GRID     705            1.65779 .06638848.075
GRID     706            1.67933 .06437268.07499
GRID     707            1.70086 .06229758.07499
GRID     708            1.72238 .06016248.07499
GRID     709            1.7439  .05796638.07499
GRID     710            1.76541 .05570858.07499
GRID     711            1.78691 .05338828.07499
GRID     712            1.8084  .05100468.07499
GRID     713            1.82989 .04855688.07499
GRID     714            1.85137 .04604368.07499
GRID     715            1.87285 .04346468.07499
GRID     716            1.89432 .040819 8.07499
GRID     717            1.91577 .038106 8.07499
GRID     718            1.93722 .03532488.07499
GRID     719            1.95866 .03247468.07499
GRID     720            1.98009 .02955468.07499
GRID     721            2.00151 .026564 8.07499
GRID     722            2.02292 .02350198.07499
GRID     723            2.04433 .02036768.07499
GRID     724            2.06572 .01716038.07499
GRID     725            2.08709 .01387918.07499
GRID     726            2.10846 .01052338.07499
GRID     727            2.12982 .007092 8.07499
GRID     728            2.15117 .00358468.07499
GRID     729            2.1725  2.144-168.07499
GRID     730            .471876 -5.45-168.02188
GRID     731            .483271 .01866888.02188
GRID     732            .498492 .03431438.02188
GRID     733            .516506 .046699 8.02188
GRID     734            .536101 .05617648.02188
GRID     735            .556643 .06348318.02188
GRID     736            .577587 .06921638.02188
GRID     737            .598768 .07392488.02188
GRID     738            .620062 .078026 8.02188
GRID     739            .641385 .08186488.02188
GRID     740            .662772 .08569948.02188
GRID     741            .684137 .08921378.02188
GRID     742            .70562  .09236828.02188
GRID     743            .727156 .09516748.02188
GRID     744            .748725 .09762458.02188
GRID     745            .770323 .09975598.02188
GRID     746            .79195  .101578 8.02188
GRID     747            .813606 .103108 8.02188
GRID     748            .835283 .10436  8.02188
GRID     749            .856986 .105353 8.02188
GRID     750            .878672 .106101 8.02188
GRID     751            .900409 .106623 8.02188
GRID     752            .92208  .106934 8.02188
GRID     753            .943818 .107049 8.02188
GRID     754            .965524 .106979 8.02188
GRID     755            .987244 .106735 8.02188
GRID     756            1.00893 .106332 8.02188
GRID     757            1.03067 .105784 8.02188
GRID     758            1.05231 .105107 8.02188
GRID     759            1.07398 .104312 8.02188
GRID     760            1.09566 .103413 8.02188
GRID     761            1.11735 .102424 8.02188
GRID     762            1.13904 .101358 8.02188
GRID     763            1.16074 .100228 8.02188
GRID     764            1.1824  .09905128.02188
GRID     765            1.2041  .09783558.02188
GRID     766            1.22573 .09660128.02188
GRID     767            1.24744 .09535328.02188
GRID     768            1.26906 .09411388.02187
GRID     769            1.29077 .09288718.02187
GRID     770            1.3124  .09169528.02187
GRID     771            1.33405 .09051188.02187
GRID     772            1.35574 .089277 8.02187
GRID     773            1.37737 .08799558.02187
GRID     774            1.39907 .08665938.02187
GRID     775            1.4207  .08527678.02187
GRID     776            1.44239 .08383828.02187
GRID     777            1.46401 .08235348.02187
GRID     778            1.48571 .08081148.02187
GRID     779            1.50736 .07922  8.02187
GRID     780            1.52901 .07757628.02187
GRID     781            1.55065 .07587998.02187
GRID     782            1.57229 .07413098.02187
GRID     783            1.59393 .07232878.02187
GRID     784            1.61556 .07047318.02187
GRID     785            1.63718 .06856388.02187
GRID     786            1.6588  .06659988.02187
GRID     787            1.68041 .06457758.02187
GRID     788            1.70202 .06249598.02187
GRID     789            1.72362 .06035418.02187
GRID     790            1.74521 .05815128.02187
GRID     791            1.76679 .05588658.02187
GRID     792            1.78837 .05355918.02187
GRID     793            1.80994 .05116838.02187
GRID     794            1.83151 .048713 8.02187
GRID     795            1.85306 .04619218.02187
GRID     796            1.87461 .04360538.02187
GRID     797            1.89616 .04095168.02187
GRID     798            1.91769 .03823038.02187
GRID     799            1.93921 .03544058.02187
GRID     800            1.96073 .03258148.02187
GRID     801            1.98223 .02965238.02187
GRID     802            2.00373 .02665228.02187
GRID     803            2.02522 .02358038.02187
GRID     804            2.04669 .02043598.02187
GRID     805            2.06816 .01721828.02187
GRID     806            2.08961 .01392628.02187
GRID     807            2.11105 .01055928.02187
GRID     808            2.13248 .00711648.02187
GRID     809            2.1539  .003597 8.02186
GRID     810            2.17531 2.13-16 8.02186
GRID     811            .468751 -5.41-167.96876
GRID     812            .480187 .018733 7.96876
GRID     813            .495466 .03443197.96876
GRID     814            .513545 .04685877.96876
GRID     815            .533213 .05637027.96876
GRID     816            .553827 .06370467.96876
GRID     817            .574844 .06946117.96876
GRID     818            .596096 .07419017.96876
GRID     819            .617459 .07830937.96876
GRID     820            .638852 .08216287.96876
GRID     821            .660312 .086008 7.96876
GRID     822            .681751 .08953087.96876
GRID     823            .703309 .092692 7.96876
GRID     824            .724921 .09549647.96876
GRID     825            .746565 .09795747.96876
GRID     826            .768238 .100092 7.96876
GRID     827            .789942 .101916 7.96876
GRID     828            .811673 .103447 7.96876
GRID     829            .833426 .1047   7.96876
GRID     830            .855205 .105694 7.96875
GRID     831            .876966 .106443 7.96875
GRID     832            .89878  .106966 7.96875
GRID     833            .920526 .107279 7.96875
GRID     834            .94234  .107397 7.96875
GRID     835            .964121 .107328 7.96875
GRID     836            .985917 .107086 7.96875
GRID     837            1.00767 .106686 7.96875
GRID     838            1.0295  .106139 7.96875
GRID     839            1.05121 .105463 7.96875
GRID     840            1.07296 .104669 7.96875
GRID     841            1.09471 .103771 7.96875
GRID     842            1.11648 .102782 7.96875
GRID     843            1.13825 .101715 7.96875
GRID     844            1.16002 .100585 7.96875
GRID     845            1.18175 .09940657.96875
GRID     846            1.20353 .09818857.96875
GRID     847            1.22523 .09695137.96875
GRID     848            1.24701 .09569957.96875
GRID     849            1.26871 .09445567.96875
GRID     850            1.2905  .09322367.96875
GRID     851            1.3122  .09202557.96875
GRID     852            1.33393 .09083517.96875
GRID     853            1.3557  .08959327.96875
GRID     854            1.3774  .08830427.96875
GRID     855            1.39918 .08696037.96875
GRID     856            1.42088 .08557  7.96875
GRID     857            1.44265 .08412367.96875
GRID     858            1.46435 .08263097.96875
GRID     859            1.48611 .08108097.96875
GRID     860            1.50784 .07948177.96875
GRID     861            1.52957 .07783017.96875
GRID     862            1.55129 .07612627.96875
GRID     863            1.573   .07436977.96875
GRID     864            1.59471 .07256027.96875
GRID     865            1.61642 .07069767.96875
GRID     866            1.63812 .06878167.96875
GRID     867            1.65981 .06681127.96875
GRID     868            1.6815  .06478257.96875
GRID     869            1.70318 .06269437.96874
GRID     870            1.72485 .06054587.96874
GRID     871            1.74652 .05833627.96874
GRID     872            1.76818 .05606457.96874
GRID     873            1.78984 .05373017.96874
GRID     874            1.81148 .05133197.96874
GRID     875            1.83312 .04886927.96874
GRID     876            1.85475 .04634077.96874
GRID     877            1.87638 .043746 7.96874
GRID     878            1.898   .04108427.96874
GRID     879            1.91961 .03835467.96874
GRID     880            1.9412  .03555627.96874
GRID     881            1.96279 .03268837.96874
GRID     882            1.98438 .02974997.96874
GRID     883            2.00595 .02674047.96874
GRID     884            2.02751 .02365887.96874
GRID     885            2.04906 .02050437.96874
GRID     886            2.0706  .01727617.96874
GRID     887            2.09212 .01397347.96874
GRID     888            2.11364 .01059527.96874
GRID     889            2.13515 .00714077.96874
GRID     890            2.15664 .00360947.96874
GRID     891            2.17813 2.115-167.96874
GRID     892            .465626 -5.37-167.91563
GRID     893            .477104 .01879727.91563
GRID     894            .49244  .03454967.91563
GRID     895            .510585 .04701847.91563
GRID     896            .530324 .056564 7.91563
GRID     897            .55101  .06392597.91563
GRID     898            .572101 .06970597.91563
GRID     899            .593423 .07445537.91563
GRID     900            .614856 .07859267.91563
GRID     901            .636319 .08246087.91563
GRID     902            .657852 .08631677.91563
GRID     903            .679366 .08984797.91563
GRID     904            .700998 .09301587.91563
GRID     905            .722686 .09582547.91563
GRID     906            .744405 .09829037.91563
GRID     907            .766154 .100427 7.91563
GRID     908            .787933 .102254 7.91563
GRID     909            .80974  .103786 7.91563
GRID     910            .831569 .10504  7.91563
GRID     911            .853424 .106035 7.91563
GRID     912            .875261 .106785 7.91563
GRID     913            .89715  .107309 7.91563
GRID     914            .918973 .107623 7.91563
GRID     915            .940861 .107744 7.91563
GRID     916            .962718 .107678 7.91563
GRID     917            .984589 .107438 7.91563
GRID     918            1.00642 .10704  7.91563
GRID     919            1.02832 .106494 7.91563
GRID     920            1.05011 .10582  7.91563
GRID     921            1.07193 .105027 7.91563
GRID     922            1.09376 .104129 7.91563
GRID     923            1.1156  .10314  7.91563
GRID     924            1.13745 .102073 7.91563
GRID     925            1.1593  .100942 7.91563
GRID     926            1.1811  .09976177.91563
GRID     927            1.20295 .09854157.91563
GRID     928            1.22474 .09730137.91563
GRID     929            1.24659 .09604587.91563
GRID     930            1.26837 .09479747.91562
GRID     931            1.29022 .09356017.91562
GRID     932            1.31201 .09235587.91562
GRID     933            1.33381 .09115857.91562
GRID     934            1.35565 .08990937.91562
GRID     935            1.37743 .08861297.91562
GRID     936            1.39928 .08726137.91562
GRID     937            1.42106 .08586327.91562
GRID     938            1.44291 .084409 7.91562
GRID     939            1.46468 .08290847.91562
GRID     940            1.48652 .08135057.91562
GRID     941            1.50832 .07974347.91562
GRID     942            1.53012 .078084 7.91562
GRID     943            1.55192 .07637247.91562
GRID     944            1.57371 .07460857.91562
GRID     945            1.5955  .07279177.91562
GRID     946            1.61728 .07092217.91562
GRID     947            1.63905 .06899957.91562
GRID     948            1.66082 .06702267.91562
GRID     949            1.68259 .06498747.91562
GRID     950            1.70434 .06289277.91562
GRID     951            1.72609 .06073757.91562
GRID     952            1.74784 .05852117.91562
GRID     953            1.76957 .05624257.91562
GRID     954            1.7913  .053901 7.91562
GRID     955            1.81302 .05149567.91562
GRID     956            1.83473 .04902547.91562
GRID     957            1.85644 .04648937.91562
GRID     958            1.87815 .04388677.91562
GRID     959            1.89984 .04121687.91562
GRID     960            1.92152 .03847897.91562
GRID     961            1.9432  .03567197.91562
GRID     962            1.96486 .03279517.91562
GRID     963            1.98652 .02984767.91562
GRID     964            2.00816 .02682877.91562
GRID     965            2.0298  .02373737.91562
GRID     966            2.05142 .02057277.91562
GRID     967            2.07304 .017334 7.91562
GRID     968            2.09464 .01402057.91562
GRID     969            2.11623 .01063117.91562
GRID     970            2.13781 .00716517.91561
GRID     971            2.15938 .00362177.91561
GRID     972            2.18094 2.101-167.91561
GRID     973            .462501 -5.34-167.86251
GRID     974            .47402  .01886137.86251
GRID     975            .489414 .03466717.86251
GRID     976            .507624 .04717817.86251
GRID     977            .527435 .05675787.86251
GRID     978            .548194 .06414727.86251
GRID     979            .569357 .06995067.86251
GRID     980            .59075  .07472047.86251
GRID     981            .612252 .07887587.86251
GRID     982            .633786 .08275887.86251
GRID     983            .655391 .08662537.86251
GRID     984            .67698  .09016517.86251
GRID     985            .698688 .09333967.86251
GRID     986            .72045  .09615447.86251
GRID     987            .742245 .09862327.86251
GRID     988            .76407  .100763 7.86251
GRID     989            .785924 .102591 7.86251
GRID     990            .807807 .104125 7.86251
GRID     991            .829712 .10538  7.86251
GRID     992            .851643 .106376 7.8625
GRID     993            .873556 .107127 7.8625
GRID     994            .89552  .107653 7.8625
GRID     995            .917419 .107968 7.8625
GRID     996            .939383 .108091 7.8625
GRID     997            .961315 .108027 7.8625
GRID     998            .983262 .10779  7.8625
GRID     999            1.00517 .107394 7.8625
GRID     1000           1.02714 .10685  7.8625
GRID     1001           1.04901 .106177 7.8625
GRID     1002           1.07091 .105385 7.8625
GRID     1003           1.09281 .104488 7.8625
GRID     1004           1.11473 .103499 7.8625
GRID     1005           1.13665 .102431 7.8625
GRID     1006           1.15857 .101299 7.8625
GRID     1007           1.18045 .100117 7.8625
GRID     1008           1.20238 .09889457.8625
GRID     1009           1.22424 .09765137.8625
GRID     1010           1.24617 .09639227.8625
GRID     1011           1.26802 .09513937.8625
GRID     1012           1.28995 .09389667.8625
GRID     1013           1.31181 .092686 7.8625
GRID     1014           1.33369 .09148187.8625
GRID     1015           1.35561 .09022547.8625
GRID     1016           1.37746 .08892167.8625
GRID     1017           1.39939 .08756247.8625
GRID     1018           1.42124 .08615657.8625
GRID     1019           1.44316 .08469447.8625
GRID     1020           1.46501 .08318587.8625
GRID     1021           1.48693 .08162017.8625
GRID     1022           1.50881 .08000517.8625
GRID     1023           1.53068 .078338 7.8625
GRID     1024           1.55255 .07661877.8625
GRID     1025           1.57442 .07484727.8625
GRID     1026           1.59628 .07302327.8625
GRID     1027           1.61814 .07114667.8625
GRID     1028           1.63999 .06921737.8625
GRID     1029           1.66183 .067234 7.8625
GRID     1030           1.68367 .06519247.8625
GRID     1031           1.7055  .06309117.8625
GRID     1032           1.72733 .06092927.86249
GRID     1033           1.74915 .058706 7.86249
GRID     1034           1.77096 .05642057.86249
GRID     1035           1.79276 .05407197.86249
GRID     1036           1.81456 .05165927.86249
GRID     1037           1.83635 .04918167.86249
GRID     1038           1.85813 .04663787.86249
GRID     1039           1.87991 .04402747.86249
GRID     1040           1.90168 .04134957.86249
GRID     1041           1.92344 .03860327.86249
GRID     1042           1.94519 .03578767.86249
GRID     1043           1.96693 .032902 7.86249
GRID     1044           1.98866 .02994537.86249
GRID     1045           2.01038 .02691697.86249
GRID     1046           2.03209 .02381587.86249
GRID     1047           2.05379 .02064117.86249
GRID     1048           2.07548 .017392 7.86249
GRID     1049           2.09715 .01406767.86249
GRID     1050           2.11882 .010667 7.86249
GRID     1051           2.14048 .00718957.86249
GRID     1052           2.16212 .00363417.86249
GRID     1053           2.18375 2.087-167.86249
GRID     1054           .459376 -5.30-167.80938
GRID     1055           .470937 .01892557.80938
GRID     1056           .486387 .03478477.80938
GRID     1057           .504664 .04733777.80938
GRID     1058           .524545 .05695157.80938
GRID     1059           .545377 .06436857.80938
GRID     1060           .566613 .07019537.80938
GRID     1061           .588077 .07498557.80938
GRID     1062           .609649 .079159 7.80938
GRID     1063           .631254 .08305687.80938
GRID     1064           .652931 .08693397.80938
GRID     1065           .674595 .09048227.80938
GRID     1066           .696377 .09366357.80938
GRID     1067           .718215 .09648347.80938
GRID     1068           .740085 .09895617.80938
GRID     1069           .761985 .101099 7.80938
GRID     1070           .783916 .102929 7.80938
GRID     1071           .805875 .104464 7.80938
GRID     1072           .827855 .105721 7.80938
GRID     1073           .849861 .106717 7.80938
GRID     1074           .87185  .107469 7.80938
GRID     1075           .893891 .107996 7.80938
GRID     1076           .915865 .108313 7.80938
GRID     1077           .937905 .108439 7.80938
GRID     1078           .959912 .108377 7.80938
GRID     1079           .981935 .108142 7.80938
GRID     1080           1.00392 .107747 7.80938
GRID     1081           1.02597 .107205 7.80938
GRID     1082           1.04791 .106534 7.80938
GRID     1083           1.06988 .105742 7.80938
GRID     1084           1.09186 .104846 7.80938
GRID     1085           1.11385 .103857 7.80938
GRID     1086           1.13585 .102789 7.80938
GRID     1087           1.15785 .101655 7.80938
GRID     1088           1.1798  .100472 7.80938
GRID     1089           1.20181 .09924757.80938
GRID     1090           1.22374 .09800137.80938
GRID     1091           1.24575 .09673857.80938
GRID     1092           1.26767 .09548117.80938
GRID     1093           1.28968 .09423317.80937
GRID     1094           1.31162 .09301637.80937
GRID     1095           1.33357 .09180527.80937
GRID     1096           1.35556 .09054157.80937
GRID     1097           1.37749 .08923027.80937
GRID     1098           1.3995  .08786347.80937
GRID     1099           1.42142 .08644977.80937
GRID     1100           1.44342 .08497987.80937
GRID     1101           1.46534 .08346337.80937
GRID     1102           1.48734 .08188967.80937
GRID     1103           1.50929 .08026687.80937
GRID     1104           1.53124 .07859197.80937
GRID     1105           1.55319 .07686497.80937
GRID     1106           1.57513 .075086 7.80937
GRID     1107           1.59707 .07325487.80937
GRID     1108           1.619   .07137117.80937
GRID     1109           1.64093 .06943517.80937
GRID     1110           1.66285 .06744547.80937
GRID     1111           1.68476 .06539737.80937
GRID     1112           1.70667 .06328957.80937
GRID     1113           1.72857 .061121 7.80937
GRID     1114           1.75046 .05889097.80937
GRID     1115           1.77235 .05659857.80937
GRID     1116           1.79423 .05424287.80937
GRID     1117           1.8161  .05182297.80937
GRID     1118           1.83796 .04933797.80937
GRID     1119           1.85982 .04678647.80937
GRID     1120           1.88168 .04416817.80937
GRID     1121           1.90352 .04148217.80937
GRID     1122           1.92535 .03872757.80937
GRID     1123           1.94718 .03590337.80937
GRID     1124           1.96899 .03300887.80937
GRID     1125           1.9908  .03004317.80937
GRID     1126           2.01259 .02700527.80937
GRID     1127           2.03438 .02389427.80937
GRID     1128           2.05615 .02070957.80937
GRID     1129           2.07792 .01744997.80937
GRID     1130           2.09967 .01411477.80937
GRID     1131           2.12141 .010703 7.80937
GRID     1132           2.14314 .00721387.80937
GRID     1133           2.16486 .00364657.80936
GRID     1134           2.18656 2.073-167.80936
GRID     1135           .456251 -5.27-167.75626
GRID     1136           .467853 .01898967.75626
GRID     1137           .483361 .03490227.75626
GRID     1138           .501703 .04749737.75626
GRID     1139           .521656 .05714527.75626
GRID     1140           .54256  .06458977.75626
GRID     1141           .56387  .07043997.75626
GRID     1142           .585404 .07525067.75626
GRID     1143           .607046 .07944237.75626
GRID     1144           .628721 .08335487.75626
GRID     1145           .650471 .08724257.75626
GRID     1146           .672209 .09079937.75626
GRID     1147           .694067 .09398737.75626
GRID     1148           .71598  .09681247.75626
GRID     1149           .737926 .09928897.75626
GRID     1150           .759901 .101434 7.75626
GRID     1151           .781907 .103267 7.75626
GRID     1152           .803942 .104803 7.75626
GRID     1153           .825998 .106061 7.75626
GRID     1154           .84808  .107058 7.75625
GRID     1155           .870145 .10781  7.75625
GRID     1156           .892261 .108339 7.75625
GRID     1157           .914311 .108658 7.75625
GRID     1158           .936426 .108786 7.75625
GRID     1159           .95851  .108727 7.75625
GRID     1160           .980608 .108494 7.75625
GRID     1161           1.00267 .108101 7.75625
GRID     1162           1.02479 .107561 7.75625
GRID     1163           1.04681 .10689  7.75625
GRID     1164           1.06886 .1061   7.75625
GRID     1165           1.09092 .105204 7.75625
GRID     1166           1.11298 .104215 7.75625
GRID     1167           1.13505 .103147 7.75625
GRID     1168           1.15713 .102012 7.75625
GRID     1169           1.17916 .100827 7.75625
GRID     1170           1.20124 .09960047.75625
GRID     1171           1.22324 .09835137.75625
GRID     1172           1.24533 .09708487.75625
GRID     1173           1.26733 .09582297.75625
GRID     1174           1.28941 .09456967.75625
GRID     1175           1.31142 .09334667.75625
GRID     1176           1.33344 .09212857.75625
GRID     1177           1.35552 .09085767.75625
GRID     1178           1.37753 .08953897.75625
GRID     1179           1.3996  .08816447.75625
GRID     1180           1.42161 .086743 7.75625
GRID     1181           1.44368 .08526527.75625
GRID     1182           1.46567 .08374087.75625
GRID     1183           1.48774 .08215927.75625
GRID     1184           1.50977 .08052857.75625
GRID     1185           1.5318  .07884587.75625
GRID     1186           1.55382 .07711127.75625
GRID     1187           1.57584 .07532487.75625
GRID     1188           1.59785 .07348637.75625
GRID     1189           1.61986 .07159577.75625
GRID     1190           1.64186 .06965297.75625
GRID     1191           1.66386 .06765687.75625
GRID     1192           1.68585 .06560237.75625
GRID     1193           1.70783 .06348787.75625
GRID     1194           1.72981 .06131277.75625
GRID     1195           1.75178 .05907597.75624
GRID     1196           1.77374 .05677657.75624
GRID     1197           1.79569 .05441377.75624
GRID     1198           1.81764 .05198657.75624
GRID     1199           1.83958 .04949417.75624
GRID     1200           1.86151 .046935 7.75624
GRID     1201           1.88344 .04430897.75624
GRID     1202           1.90536 .04161477.75624
GRID     1203           1.92727 .03885187.75624
GRID     1204           1.94917 .036019 7.75624
GRID     1205           1.97106 .03311577.75624
GRID     1206           1.99294 .03014087.75624
GRID     1207           2.01481 .02709347.75624
GRID     1208           2.03667 .02397277.75624
GRID     1209           2.05852 .02077787.75624
GRID     1210           2.08036 .01750787.75624
GRID     1211           2.10218 .01416187.75624
GRID     1212           2.124   .01073897.75624
GRID     1213           2.1458  .00723827.75624
GRID     1214           2.1676  .00365897.75624
GRID     1215           2.18938 2.059-167.75624
GRID     1216           .453126 -5.23-167.70313
GRID     1217           .464769 .01905387.70313
GRID     1218           .480334 .03501987.70313
GRID     1219           .498743 .04765687.70313
GRID     1220           .518767 .05733887.70313
GRID     1221           .539743 .06481087.70313
GRID     1222           .561126 .07068447.70313
GRID     1223           .582731 .07551577.70313
GRID     1224           .604442 .07972547.70313
GRID     1225           .626187 .08365287.70313
GRID     1226           .64801  .08755117.70313
GRID     1227           .669824 .09111647.70313
GRID     1228           .691756 .09431127.70313
GRID     1229           .713745 .09714147.70313
GRID     1230           .735766 .09962187.70313
GRID     1231           .757817 .10177  7.70313
GRID     1232           .779899 .103604 7.70313
GRID     1233           .802009 .105142 7.70313
GRID     1234           .824141 .106401 7.70313
GRID     1235           .846299 .107399 7.70313
GRID     1236           .868439 .108152 7.70313
GRID     1237           .890632 .108682 7.70313
GRID     1238           .912757 .109003 7.70313
GRID     1239           .934948 .109133 7.70313
GRID     1240           .957107 .109076 7.70313
GRID     1241           .97928  .108845 7.70313
GRID     1242           1.00142 .108455 7.70313
GRID     1243           1.02362 .107916 7.70313
GRID     1244           1.04571 .107247 7.70313
GRID     1245           1.06783 .106458 7.70313
GRID     1246           1.08997 .105562 7.70313
GRID     1247           1.11211 .104573 7.70313
GRID     1248           1.13425 .103505 7.70313
GRID     1249           1.1564  .102369 7.70313
GRID     1250           1.17851 .101183 7.70313
GRID     1251           1.20066 .09995347.70313
GRID     1252           1.22275 .09870137.70313
GRID     1253           1.2449  .09743117.70313
GRID     1254           1.26698 .09616477.70313
GRID     1255           1.28914 .09490617.70313
GRID     1256           1.31122 .09367697.70312
GRID     1257           1.33332 .09245197.70312
GRID     1258           1.35547 .09117387.70312
GRID     1259           1.37756 .08984757.70312
GRID     1260           1.39971 .08846547.70312
GRID     1261           1.42179 .08703627.70312
GRID     1262           1.44393 .08555067.70312
GRID     1263           1.46601 .08401827.70312
GRID     1264           1.48815 .08242877.70312
GRID     1265           1.51026 .08079027.70312
GRID     1266           1.53236 .07909977.70312
GRID     1267           1.55446 .07735747.70312
GRID     1268           1.57655 .07556367.70312
GRID     1269           1.59864 .07371787.70312
GRID     1270           1.62072 .07182027.70312
GRID     1271           1.6428  .06987087.70312
GRID     1272           1.66487 .06786827.70312
GRID     1273           1.68693 .06580727.70312
GRID     1274           1.70899 .06368627.70312
GRID     1275           1.73104 .06150447.70312
GRID     1276           1.75309 .05926087.70312
GRID     1277           1.77513 .05695457.70312
GRID     1278           1.79716 .05458467.70312
GRID     1279           1.81918 .05215027.70312
GRID     1280           1.84119 .04965037.70312
GRID     1281           1.8632  .04708367.70312
GRID     1282           1.88521 .04444967.70312
GRID     1283           1.9072  .04174747.70312
GRID     1284           1.92918 .03897617.70312
GRID     1285           1.95116 .03613487.70312
GRID     1286           1.97312 .03322257.70312
GRID     1287           1.99508 .03023857.70312
GRID     1288           2.01703 .02718177.70312
GRID     1289           2.03896 .02405127.70312
GRID     1290           2.06088 .02084627.70312
GRID     1291           2.0828  .01756587.70312
GRID     1292           2.1047  .014209 7.70312
GRID     1293           2.12659 .01077497.70312
GRID     1294           2.14847 .00726267.70312
GRID     1295           2.17033 .00367137.70312
GRID     1296           2.19219 2.045-167.70312
GRID     1297           .450001 -5.19-167.65001
GRID     1298           .461686 .01911797.65001
GRID     1299           .477308 .03513727.65001
GRID     1300           .495782 .04781637.65001
GRID     1301           .515877 .05753237.65001
GRID     1302           .536926 .06503197.65001
GRID     1303           .558381 .07092897.65001
GRID     1304           .580057 .07578077.65001
GRID     1305           .601839 .08000867.65001
GRID     1306           .623654 .08395077.65001
GRID     1307           .64555  .08785987.65001
GRID     1308           .667438 .09143367.65001
GRID     1309           .689445 .094635 7.65001
GRID     1310           .711509 .09747057.65001
GRID     1311           .733606 .09995477.65001
GRID     1312           .755732 .102106 7.65001
GRID     1313           .77789  .103942 7.65001
GRID     1314           .800077 .105481 7.65
GRID     1315           .822284 .106741 7.65
GRID     1316           .844518 .107739 7.65
GRID     1317           .866734 .108494 7.65
GRID     1318           .889002 .109025 7.65
GRID     1319           .911203 .109348 7.65
GRID     1320           .933469 .109481 7.65
GRID     1321           .955704 .109426 7.65
GRID     1322           .977953 .109197 7.65
GRID     1323           1.00016 .108808 7.65
GRID     1324           1.02244 .108271 7.65
GRID     1325           1.04461 .107604 7.65
GRID     1326           1.06681 .106815 7.65
GRID     1327           1.08902 .10592  7.65
GRID     1328           1.11123 .104932 7.65
GRID     1329           1.13345 .103862 7.65
GRID     1330           1.15568 .102726 7.65
GRID     1331           1.17786 .101538 7.65
GRID     1332           1.20009 .100306 7.65
GRID     1333           1.22225 .09905137.65
GRID     1334           1.24448 .09777757.65
GRID     1335           1.26663 .09650667.65
GRID     1336           1.28887 .09524267.65
GRID     1337           1.31103 .09400727.65
GRID     1338           1.3332  .09277527.65
GRID     1339           1.35543 .09148997.65
GRID     1340           1.37759 .09015627.65
GRID     1341           1.39981 .08876657.65
GRID     1342           1.42197 .08732957.65
GRID     1343           1.44419 .08583597.65
GRID     1344           1.46634 .08429577.65
GRID     1345           1.48856 .08269837.65
GRID     1346           1.51074 .08105197.65
GRID     1347           1.53292 .07935367.65
GRID     1348           1.55509 .07760367.65
GRID     1349           1.57726 .07580247.65
GRID     1350           1.59942 .07394937.65
GRID     1351           1.62158 .07204477.65
GRID     1352           1.64373 .07008867.65
GRID     1353           1.66588 .06807977.65
GRID     1354           1.68802 .06601227.65
GRID     1355           1.71015 .06388467.65
GRID     1356           1.73228 .06169617.64999
GRID     1357           1.7544  .05944577.64999
GRID     1358           1.77651 .05713257.64999
GRID     1359           1.79862 .05475557.64999
GRID     1360           1.82072 .05231397.64999
GRID     1361           1.84281 .04980657.64999
GRID     1362           1.86489 .04723227.64999
GRID     1363           1.88697 .04459037.64999
GRID     1364           1.90904 .04188  7.64999
GRID     1365           1.9311  .03910047.64999
GRID     1366           1.95315 .03625057.64999
GRID     1367           1.97519 .03332947.64999
GRID     1368           1.99722 .03033627.64999
GRID     1369           2.01924 .02726997.64999
GRID     1370           2.04125 .02412977.64999
GRID     1371           2.06325 .02091467.64999
GRID     1372           2.08524 .01762377.64999
GRID     1373           2.10721 .01425617.64999
GRID     1374           2.12918 .01081087.64999
GRID     1375           2.15113 .00728697.64999
GRID     1376           2.17307 .00368377.64999
GRID     1377           2.195   2.031-167.64999
GRID     1378           .446876 -5.16-167.59688
GRID     1379           .458602 .019182 7.59688
GRID     1380           .474281 .03525477.59688
GRID     1381           .492821 .04797577.59688
GRID     1382           .512988 .05772587.59688
GRID     1383           .534109 .065253 7.59688
GRID     1384           .555637 .07117347.59688
GRID     1385           .577384 .07604567.59688
GRID     1386           .599235 .08029187.59688
GRID     1387           .621121 .08424877.59688
GRID     1388           .643089 .08816847.59688
GRID     1389           .665053 .09175077.59688
GRID     1390           .687135 .09495887.59688
GRID     1391           .709274 .09779957.59688
GRID     1392           .731446 .100288 7.59688
GRID     1393           .753648 .102441 7.59688
GRID     1394           .775882 .10428  7.59688
GRID     1395           .798144 .10582  7.59688
GRID     1396           .820427 .107081 7.59688
GRID     1397           .842737 .10808  7.59688
GRID     1398           .865028 .108836 7.59688
GRID     1399           .887372 .109368 7.59688
GRID     1400           .909649 .109693 7.59688
GRID     1401           .931991 .109828 7.59688
GRID     1402           .954301 .109776 7.59688
GRID     1403           .976626 .109549 7.59688
GRID     1404           .998913 .109162 7.59688
GRID     1405           1.02126 .108627 7.59688
GRID     1406           1.04351 .10796  7.59688
GRID     1407           1.06578 .107173 7.59688
GRID     1408           1.08807 .106279 7.59688
GRID     1409           1.11036 .10529  7.59688
GRID     1410           1.13265 .10422  7.59688
GRID     1411           1.15495 .103083 7.59688
GRID     1412           1.17721 .101893 7.59688
GRID     1413           1.19952 .100659 7.59688
GRID     1414           1.22175 .09940137.59688
GRID     1415           1.24406 .09812387.59688
GRID     1416           1.26629 .09684847.59688
GRID     1417           1.2886  .09557917.59688
GRID     1418           1.31083 .09433757.59687
GRID     1419           1.33308 .09309857.59687
GRID     1420           1.35538 .091806 7.59687
GRID     1421           1.37762 .09046487.59687
GRID     1422           1.39992 .08906757.59687
GRID     1423           1.42215 .08762277.59687
GRID     1424           1.44445 .08612137.59687
GRID     1425           1.46667 .08457327.59687
GRID     1426           1.48897 .08296787.59687
GRID     1427           1.51122 .08131367.59687
GRID     1428           1.53347 .07960757.59687
GRID     1429           1.55572 .07784997.59687
GRID     1430           1.57797 .07604117.59687
GRID     1431           1.60021 .07418087.59687
GRID     1432           1.62244 .07226927.59687
GRID     1433           1.64467 .07030647.59687
GRID     1434           1.66689 .06829117.59687
GRID     1435           1.68911 .06621717.59687
GRID     1436           1.71132 .064083 7.59687
GRID     1437           1.73352 .06188787.59687
GRID     1438           1.75571 .05963077.59687
GRID     1439           1.7779  .05731057.59687
GRID     1440           1.80008 .05492657.59687
GRID     1441           1.82226 .05247757.59687
GRID     1442           1.84442 .04996287.59687
GRID     1443           1.86658 .04738087.59687
GRID     1444           1.88874 .04473117.59687
GRID     1445           1.91088 .04201277.59687
GRID     1446           1.93302 .03922477.59687
GRID     1447           1.95514 .03636627.59687
GRID     1448           1.97726 .03343637.59687
GRID     1449           1.99936 .03043397.59687
GRID     1450           2.02146 .02735827.59687
GRID     1451           2.04354 .02420827.59687
GRID     1452           2.06562 .020983 7.59687
GRID     1453           2.08768 .01768167.59687
GRID     1454           2.10973 .01430327.59687
GRID     1455           2.13177 .01084677.59687
GRID     1456           2.1538  .00731137.59687
GRID     1457           2.17581 .00369617.59687
GRID     1458           2.19781 2.017-167.59687
GRID     1459           .443751 -5.12-167.54376
GRID     1460           .455519 .01924617.54376
GRID     1461           .471255 .03537217.54376
GRID     1462           .48986  .04813517.54376
GRID     1463           .510098 .05791937.54376
GRID     1464           .531291 .065474 7.54376
GRID     1465           .552892 .07141787.54376
GRID     1466           .57471  .07631057.54376
GRID     1467           .596631 .08057497.54376
GRID     1468           .618588 .08454677.54376
GRID     1469           .640629 .088477 7.54376
GRID     1470           .662667 .09206787.54376
GRID     1471           .684824 .09528267.54376
GRID     1472           .707039 .09812857.54376
GRID     1473           .729286 .100621 7.54376
GRID     1474           .751564 .102777 7.54376
GRID     1475           .773873 .104617 7.54376
GRID     1476           .796212 .106159 7.54376
GRID     1477           .81857  .107421 7.54376
GRID     1478           .840955 .108421 7.54375
GRID     1479           .863323 .109178 7.54375
GRID     1480           .885743 .109711 7.54375
GRID     1481           .908095 .110038 7.54375
GRID     1482           .930513 .110175 7.54375
GRID     1483           .952898 .110125 7.54375
GRID     1484           .975298 .109901 7.54375
GRID     1485           .997661 .109516 7.54375
GRID     1486           1.02009 .108982 7.54375
GRID     1487           1.04241 .108317 7.54375
GRID     1488           1.06476 .107531 7.54375
GRID     1489           1.08712 .106637 7.54375
GRID     1490           1.10948 .105648 7.54375
GRID     1491           1.13185 .104578 7.54375
GRID     1492           1.15423 .10344  7.54375
GRID     1493           1.17656 .102248 7.54375
GRID     1494           1.19894 .101012 7.54375
GRID     1495           1.22126 .09975137.54375
GRID     1496           1.24364 .09847017.54375
GRID     1497           1.26594 .09719027.54375
GRID     1498           1.28832 .09591567.54375
GRID     1499           1.31064 .09466777.54375
GRID     1500           1.33296 .09342197.54375
GRID     1501           1.35534 .09212217.54375
GRID     1502           1.37765 .09077357.54375
GRID     1503           1.40003 .08936857.54375
GRID     1504           1.42233 .08791597.54375
GRID     1505           1.4447  .08640677.54375
GRID     1506           1.467   .08485067.54375
GRID     1507           1.48938 .08323737.54375
GRID     1508           1.5117  .08157537.54375
GRID     1509           1.53403 .07986147.54375
GRID     1510           1.55636 .07809617.54375
GRID     1511           1.57868 .07627997.54375
GRID     1512           1.60099 .07441237.54375
GRID     1513           1.6233  .07249377.54375
GRID     1514           1.6456  .07052427.54375
GRID     1515           1.6679  .06850257.54375
GRID     1516           1.69019 .06642217.54375
GRID     1517           1.71248 .06428147.54375
GRID     1518           1.73476 .06207967.54375
GRID     1519           1.75703 .05981567.54375
GRID     1520           1.77929 .05748857.54375
GRID     1521           1.80155 .05509747.54375
GRID     1522           1.8238  .05264127.54374
GRID     1523           1.84604 .050119 7.54374
GRID     1524           1.86827 .04752947.54374
GRID     1525           1.8905  .04487187.54374
GRID     1526           1.91272 .04214537.54374
GRID     1527           1.93493 .039349 7.54374
GRID     1528           1.95713 .03648197.54374
GRID     1529           1.97932 .03354317.54374
GRID     1530           2.0015  .03053167.54374
GRID     1531           2.02367 .02744657.54374
GRID     1532           2.04583 .02428677.54374
GRID     1533           2.06798 .02105147.54374
GRID     1534           2.09012 .01773967.54374
GRID     1535           2.11224 .01435037.54374
GRID     1536           2.13436 .01088277.54374
GRID     1537           2.15646 .00733577.54374
GRID     1538           2.17855 .00370857.54374
GRID     1539           2.20063 2.003-167.54374
GRID     1540           .440626 -5.09-167.49063
GRID     1541           .452435 .01931027.49063
GRID     1542           .468228 .03548957.49063
GRID     1543           .486899 .04829447.49063
GRID     1544           .507208 .05811267.49063
GRID     1545           .528473 .06569497.49063
GRID     1546           .550148 .07166227.49063
GRID     1547           .572036 .07657547.49063
GRID     1548           .594027 .080858 7.49063
GRID     1549           .616055 .08484467.49063
GRID     1550           .638169 .08878567.49063
GRID     1551           .660282 .092385 7.49063
GRID     1552           .682514 .09560657.49063
GRID     1553           .704803 .09845757.49063
GRID     1554           .727126 .100953 7.49063
GRID     1555           .74948  .103113 7.49063
GRID     1556           .771864 .104955 7.49063
GRID     1557           .794279 .106498 7.49063
GRID     1558           .816713 .107761 7.49063
GRID     1559           .839174 .108762 7.49063
GRID     1560           .861617 .10952  7.49063
GRID     1561           .884113 .110054 7.49063
GRID     1562           .906541 .110383 7.49063
GRID     1563           .929034 .110522 7.49063
GRID     1564           .951496 .110475 7.49063
GRID     1565           .973971 .110253 7.49063
GRID     1566           .996409 .10987  7.49063
GRID     1567           1.01891 .109338 7.49063
GRID     1568           1.04131 .108674 7.49063
GRID     1569           1.06373 .107888 7.49063
GRID     1570           1.08617 .106995 7.49063
GRID     1571           1.10861 .106007 7.49063
GRID     1572           1.13106 .104936 7.49063
GRID     1573           1.15351 .103796 7.49063
GRID     1574           1.17592 .102604 7.49063
GRID     1575           1.19837 .101365 7.49063
GRID     1576           1.22076 .100101 7.49063
GRID     1577           1.24322 .09881647.49063
GRID     1578           1.26559 .097532 7.49063
GRID     1579           1.28805 .09625217.49063
GRID     1580           1.31044 .094998 7.49062
GRID     1581           1.33284 .09374527.49062
GRID     1582           1.35529 .09243827.49062
GRID     1583           1.37768 .09108217.49062
GRID     1584           1.40013 .08966957.49062
GRID     1585           1.42251 .08820927.49062
GRID     1586           1.44496 .08669217.49062
GRID     1587           1.46734 .08512817.49062
GRID     1588           1.48978 .08350697.49062
GRID     1589           1.51219 .081837 7.49062
GRID     1590           1.53459 .08011537.49062
GRID     1591           1.55699 .07834247.49062
GRID     1592           1.57938 .07651877.49062
GRID     1593           1.60177 .07464387.49062
GRID     1594           1.62416 .07271827.49062
GRID     1595           1.64654 .07074217.49062
GRID     1596           1.66891 .06871397.49062
GRID     1597           1.69128 .066627 7.49062
GRID     1598           1.71364 .06447987.49062
GRID     1599           1.73599 .06227137.49062
GRID     1600           1.75834 .06000057.49062
GRID     1601           1.78068 .05766657.49062
GRID     1602           1.80301 .05526837.49062
GRID     1603           1.82534 .05280497.49062
GRID     1604           1.84765 .05027527.49062
GRID     1605           1.86996 .047678 7.49062
GRID     1606           1.89227 .04501257.49062
GRID     1607           1.91456 .042278 7.49062
GRID     1608           1.93685 .03947347.49062
GRID     1609           1.95912 .03659777.49062
GRID     1610           1.98139 .03365  7.49062
GRID     1611           2.00364 .03062937.49062
GRID     1612           2.02589 .02753477.49062
GRID     1613           2.04812 .02436527.49062
GRID     1614           2.07035 .02111987.49062
GRID     1615           2.09256 .01779757.49062
GRID     1616           2.11476 .01439757.49062
GRID     1617           2.13695 .01091867.49062
GRID     1618           2.15912 .00736017.49062
GRID     1619           2.18129 .00372097.49062
GRID     1620           2.20344 1.989-167.49062
GRID     1621           .437501 -5.05-167.43751
GRID     1622           .449351 .01937437.43751
GRID     1623           .465202 .03560697.43751
GRID     1624           .483938 .04845377.43751
GRID     1625           .504318 .058306 7.43751
GRID     1626           .525656 .06591587.43751
GRID     1627           .547403 .07190657.43751
GRID     1628           .569362 .07684027.43751
GRID     1629           .591423 .081141 7.43751
GRID     1630           .613522 .08514267.43751
GRID     1631           .635708 .08909427.43751
GRID     1632           .657896 .09270217.43751
GRID     1633           .680203 .09593037.43751
GRID     1634           .702568 .09878657.43751
GRID     1635           .724967 .101286 7.43751
GRID     1636           .747395 .103449 7.43751
GRID     1637           .769856 .105292 7.43751
GRID     1638           .792346 .106837 7.4375
GRID     1639           .814856 .108101 7.4375
GRID     1640           .837393 .109103 7.4375
GRID     1641           .859912 .109861 7.4375
GRID     1642           .882484 .110397 7.4375
GRID     1643           .904987 .110728 7.4375
GRID     1644           .927556 .11087  7.4375
GRID     1645           .950093 .110825 7.4375
GRID     1646           .972644 .110604 7.4375
GRID     1647           .995157 .110223 7.4375
GRID     1648           1.01773 .109693 7.4375
GRID     1649           1.04021 .109031 7.4375
GRID     1650           1.06271 .108246 7.4375
GRID     1651           1.08522 .107353 7.4375
GRID     1652           1.10773 .106365 7.4375
GRID     1653           1.13026 .105294 7.4375
GRID     1654           1.15278 .104153 7.4375
GRID     1655           1.17527 .102959 7.4375
GRID     1656           1.1978  .101718 7.4375
GRID     1657           1.22026 .100451 7.4375
GRID     1658           1.24279 .09916277.4375
GRID     1659           1.26525 .09787387.4375
GRID     1660           1.28778 .09658857.4375
GRID     1661           1.31024 .09532837.4375
GRID     1662           1.33272 .09406857.4375
GRID     1663           1.35525 .09275437.4375
GRID     1664           1.37771 .09139087.4375
GRID     1665           1.40024 .08997057.4375
GRID     1666           1.42269 .08850247.4375
[...]
CQUAD4   25328   2       25412   25413   25492   25491   0.     -.015
CQUAD4   25329   2       25413   25414   25493   25492   0.     -.015
CQUAD4   25330   2       25414   25415   25494   25493   0.     -.015
CQUAD4   25331   2       25415   25416   25495   25494   0.     -.015
CQUAD4   25332   2       25416   25417   25496   25495   0.     -.015
CQUAD4   25333   2       25417   25418   25497   25496   0.     -.015
CQUAD4   25334   2       25418   25419   25498   25497   0.     -.015
CQUAD4   25335   2       25419   25420   25499   25498   0.     -.015
CQUAD4   25336   2       25420   25421   25500   25499   0.     -.015
CQUAD4   25337   2       25421   25422   25501   25500   0.     -.015
CQUAD4   25338   2       25422   25423   25502   25501   0.     -.015
CQUAD4   25339   2       25423   25424   25503   25502   0.     -.015
CQUAD4   25340   2       25424   25425   25504   25503   0.     -.015
CQUAD4   25341   2       25425   25426   25505   25504   0.     -.015
CQUAD4   25342   2       25426   25427   25506   25505   0.     -.015
CQUAD4   25343   2       25427   25428   25507   25506   0.     -.015
CQUAD4   25344   2       25428   25429   25508   25507   0.     -.015
CQUAD4   25345   2       25429   25430   25509   25508   0.     -.015
CQUAD4   25346   2       25430   25431   25510   25509   0.     -.015
CQUAD4   25347   2       25431   25432   25511   25510   0.     -.015
CQUAD4   25348   2       25432   25433   25512   25511   0.     -.015
CQUAD4   25349   2       25433   25434   25513   25512   0.     -.015
CQUAD4   25350   2       25434   25435   25514   25513   0.     -.015
CQUAD4   25351   2       25435   25436   25515   25514   0.     -.015
CQUAD4   25352   2       25436   25437   25516   25515   0.     -.015
CQUAD4   25353   2       25437   25438   25517   25516   0.     -.015
CQUAD4   25354   2       25438   25439   25518   25517   0.     -.015
CQUAD4   25355   2       25439   25440   25519   25518   0.     -.015
CQUAD4   25356   2       25440   25441   25520   25519   0.     -.015
CQUAD4   25357   2       25441   25442   25521   25520   0.     -.015
CQUAD4   25358   2       25442   25443   25522   25521   0.     -.015
CQUAD4   25359   2       25443   25444   25523   25522   0.     -.015
CQUAD4   25360   2       25444   12717   12798   25523   0.     -.015
CQUAD4   25361   2       12718   25445   25524   12799   0.     -.015
CQUAD4   25362   2       25445   25446   25525   25524   0.     -.015
CQUAD4   25363   2       25446   25447   25526   25525   0.     -.015
CQUAD4   25364   2       25447   25448   25527   25526   0.     -.015
CQUAD4   25365   2       25448   25449   25528   25527   0.     -.015
CQUAD4   25366   2       25449   25450   25529   25528   0.     -.015
CQUAD4   25367   2       25450   25451   25530   25529   0.     -.015
CQUAD4   25368   2       25451   25452   25531   25530   0.     -.015
CQUAD4   25369   2       25452   25453   25532   25531   0.     -.015
CQUAD4   25370   2       25453   25454   25533   25532   0.     -.015
CQUAD4   25371   2       25454   25455   25534   25533   0.     -.015
CQUAD4   25372   2       25455   25456   25535   25534   0.     -.015
CQUAD4   25373   2       25456   25457   25536   25535   0.     -.015
CQUAD4   25374   2       25457   25458   25537   25536   0.     -.015
CQUAD4   25375   2       25458   25459   25538   25537   0.     -.015
CQUAD4   25376   2       25459   25460   25539   25538   0.     -.015
CQUAD4   25377   2       25460   25461   25540   25539   0.     -.015
CQUAD4   25378   2       25461   25462   25541   25540   0.     -.015
CQUAD4   25379   2       25462   25463   25542   25541   0.     -.015
CQUAD4   25380   2       25463   25464   25543   25542   0.     -.015
CQUAD4   25381   2       25464   25465   25544   25543   0.     -.015
CQUAD4   25382   2       25465   25466   25545   25544   0.     -.015
CQUAD4   25383   2       25466   25467   25546   25545   0.     -.015
CQUAD4   25384   2       25467   25468   25547   25546   0.     -.015
CQUAD4   25385   2       25468   25469   25548   25547   0.     -.015
CQUAD4   25386   2       25469   25470   25549   25548   0.     -.015
CQUAD4   25387   2       25470   25471   25550   25549   0.     -.015
CQUAD4   25388   2       25471   25472   25551   25550   0.     -.015
CQUAD4   25389   2       25472   25473   25552   25551   0.     -.015
CQUAD4   25390   2       25473   25474   25553   25552   0.     -.015
CQUAD4   25391   2       25474   25475   25554   25553   0.     -.015
CQUAD4   25392   2       25475   25476   25555   25554   0.     -.015
CQUAD4   25393   2       25476   25477   25556   25555   0.     -.015
CQUAD4   25394   2       25477   25478   25557   25556   0.     -.015
CQUAD4   25395   2       25478   25479   25558   25557   0.     -.015
CQUAD4   25396   2       25479   25480   25559   25558   0.     -.015
CQUAD4   25397   2       25480   25481   25560   25559   0.     -.015
CQUAD4   25398   2       25481   25482   25561   25560   0.     -.015
CQUAD4   25399   2       25482   25483   25562   25561   0.     -.015
CQUAD4   25400   2       25483   25484   25563   25562   0.     -.015
CQUAD4   25401   2       25484   25485   25564   25563   0.     -.015
CQUAD4   25402   2       25485   25486   25565   25564   0.     -.015
CQUAD4   25403   2       25486   25487   25566   25565   0.     -.015
CQUAD4   25404   2       25487   25488   25567   25566   0.     -.015
CQUAD4   25405   2       25488   25489   25568   25567   0.     -.015
CQUAD4   25406   2       25489   25490   25569   25568   0.     -.015
CQUAD4   25407   2       25490   25491   25570   25569   0.     -.015
CQUAD4   25408   2       25491   25492   25571   25570   0.     -.015
CQUAD4   25409   2       25492   25493   25572   25571   0.     -.015
CQUAD4   25410   2       25493   25494   25573   25572   0.     -.015
CQUAD4   25411   2       25494   25495   25574   25573   0.     -.015
CQUAD4   25412   2       25495   25496   25575   25574   0.     -.015
CQUAD4   25413   2       25496   25497   25576   25575   0.     -.015
CQUAD4   25414   2       25497   25498   25577   25576   0.     -.015
CQUAD4   25415   2       25498   25499   25578   25577   0.     -.015
CQUAD4   25416   2       25499   25500   25579   25578   0.     -.015
CQUAD4   25417   2       25500   25501   25580   25579   0.     -.015
CQUAD4   25418   2       25501   25502   25581   25580   0.     -.015
CQUAD4   25419   2       25502   25503   25582   25581   0.     -.015
CQUAD4   25420   2       25503   25504   25583   25582   0.     -.015
CQUAD4   25421   2       25504   25505   25584   25583   0.     -.015
CQUAD4   25422   2       25505   25506   25585   25584   0.     -.015
CQUAD4   25423   2       25506   25507   25586   25585   0.     -.015
CQUAD4   25424   2       25507   25508   25587   25586   0.     -.015
CQUAD4   25425   2       25508   25509   25588   25587   0.     -.015
CQUAD4   25426   2       25509   25510   25589   25588   0.     -.015
CQUAD4   25427   2       25510   25511   25590   25589   0.     -.015
CQUAD4   25428   2       25511   25512   25591   25590   0.     -.015
CQUAD4   25429   2       25512   25513   25592   25591   0.     -.015
CQUAD4   25430   2       25513   25514   25593   25592   0.     -.015
CQUAD4   25431   2       25514   25515   25594   25593   0.     -.015
CQUAD4   25432   2       25515   25516   25595   25594   0.     -.015
CQUAD4   25433   2       25516   25517   25596   25595   0.     -.015
CQUAD4   25434   2       25517   25518   25597   25596   0.     -.015
CQUAD4   25435   2       25518   25519   25598   25597   0.     -.015
CQUAD4   25436   2       25519   25520   25599   25598   0.     -.015
CQUAD4   25437   2       25520   25521   25600   25599   0.     -.015
CQUAD4   25438   2       25521   25522   25601   25600   0.     -.015
CQUAD4   25439   2       25522   25523   25602   25601   0.     -.015
CQUAD4   25440   2       25523   12798   12879   25602   0.     -.015
CQUAD4   25441   2       12799   25524   25603   12880   0.     -.015
CQUAD4   25442   2       25524   25525   25604   25603   0.     -.015
CQUAD4   25443   2       25525   25526   25605   25604   0.     -.015
CQUAD4   25444   2       25526   25527   25606   25605   0.     -.015
CQUAD4   25445   2       25527   25528   25607   25606   0.     -.015
CQUAD4   25446   2       25528   25529   25608   25607   0.     -.015
CQUAD4   25447   2       25529   25530   25609   25608   0.     -.015
CQUAD4   25448   2       25530   25531   25610   25609   0.     -.015
CQUAD4   25449   2       25531   25532   25611   25610   0.     -.015
CQUAD4   25450   2       25532   25533   25612   25611   0.     -.015
CQUAD4   25451   2       25533   25534   25613   25612   0.     -.015
CQUAD4   25452   2       25534   25535   25614   25613   0.     -.015
CQUAD4   25453   2       25535   25536   25615   25614   0.     -.015
CQUAD4   25454   2       25536   25537   25616   25615   0.     -.015
CQUAD4   25455   2       25537   25538   25617   25616   0.     -.015
CQUAD4   25456   2       25538   25539   25618   25617   0.     -.015
CQUAD4   25457   2       25539   25540   25619   25618   0.     -.015
CQUAD4   25458   2       25540   25541   25620   25619   0.     -.015
CQUAD4   25459   2       25541   25542   25621   25620   0.     -.015
CQUAD4   25460   2       25542   25543   25622   25621   0.     -.015
CQUAD4   25461   2       25543   25544   25623   25622   0.     -.015
CQUAD4   25462   2       25544   25545   25624   25623   0.     -.015
CQUAD4   25463   2       25545   25546   25625   25624   0.     -.015
CQUAD4   25464   2       25546   25547   25626   25625   0.     -.015
CQUAD4   25465   2       25547   25548   25627   25626   0.     -.015
CQUAD4   25466   2       25548   25549   25628   25627   0.     -.015
CQUAD4   25467   2       25549   25550   25629   25628   0.     -.015
CQUAD4   25468   2       25550   25551   25630   25629   0.     -.015
CQUAD4   25469   2       25551   25552   25631   25630   0.     -.015
CQUAD4   25470   2       25552   25553   25632   25631   0.     -.015
CQUAD4   25471   2       25553   25554   25633   25632   0.     -.015
CQUAD4   25472   2       25554   25555   25634   25633   0.     -.015
CQUAD4   25473   2       25555   25556   25635   25634   0.     -.015
CQUAD4   25474   2       25556   25557   25636   25635   0.     -.015
CQUAD4   25475   2       25557   25558   25637   25636   0.     -.015
CQUAD4   25476   2       25558   25559   25638   25637   0.     -.015
CQUAD4   25477   2       25559   25560   25639   25638   0.     -.015
CQUAD4   25478   2       25560   25561   25640   25639   0.     -.015
CQUAD4   25479   2       25561   25562   25641   25640   0.     -.015
CQUAD4   25480   2       25562   25563   25642   25641   0.     -.015
CQUAD4   25481   2       25563   25564   25643   25642   0.     -.015
CQUAD4   25482   2       25564   25565   25644   25643   0.     -.015
CQUAD4   25483   2       25565   25566   25645   25644   0.     -.015
CQUAD4   25484   2       25566   25567   25646   25645   0.     -.015
CQUAD4   25485   2       25567   25568   25647   25646   0.     -.015
CQUAD4   25486   2       25568   25569   25648   25647   0.     -.015
CQUAD4   25487   2       25569   25570   25649   25648   0.     -.015
CQUAD4   25488   2       25570   25571   25650   25649   0.     -.015
CQUAD4   25489   2       25571   25572   25651   25650   0.     -.015
CQUAD4   25490   2       25572   25573   25652   25651   0.     -.015
CQUAD4   25491   2       25573   25574   25653   25652   0.     -.015
CQUAD4   25492   2       25574   25575   25654   25653   0.     -.015
CQUAD4   25493   2       25575   25576   25655   25654   0.     -.015
CQUAD4   25494   2       25576   25577   25656   25655   0.     -.015
CQUAD4   25495   2       25577   25578   25657   25656   0.     -.015
CQUAD4   25496   2       25578   25579   25658   25657   0.     -.015
CQUAD4   25497   2       25579   25580   25659   25658   0.     -.015
CQUAD4   25498   2       25580   25581   25660   25659   0.     -.015
CQUAD4   25499   2       25581   25582   25661   25660   0.     -.015
CQUAD4   25500   2       25582   25583   25662   25661   0.     -.015
CQUAD4   25501   2       25583   25584   25663   25662   0.     -.015
CQUAD4   25502   2       25584   25585   25664   25663   0.     -.015
CQUAD4   25503   2       25585   25586   25665   25664   0.     -.015
CQUAD4   25504   2       25586   25587   25666   25665   0.     -.015
CQUAD4   25505   2       25587   25588   25667   25666   0.     -.015
CQUAD4   25506   2       25588   25589   25668   25667   0.     -.015
CQUAD4   25507   2       25589   25590   25669   25668   0.     -.015
CQUAD4   25508   2       25590   25591   25670   25669   0.     -.015
CQUAD4   25509   2       25591   25592   25671   25670   0.     -.015
CQUAD4   25510   2       25592   25593   25672   25671   0.     -.015
CQUAD4   25511   2       25593   25594   25673   25672   0.     -.015
CQUAD4   25512   2       25594   25595   25674   25673   0.     -.015
CQUAD4   25513   2       25595   25596   25675   25674   0.     -.015
CQUAD4   25514   2       25596   25597   25676   25675   0.     -.015
CQUAD4   25515   2       25597   25598   25677   25676   0.     -.015
CQUAD4   25516   2       25598   25599   25678   25677   0.     -.015
CQUAD4   25517   2       25599   25600   25679   25678   0.     -.015
CQUAD4   25518   2       25600   25601   25680   25679   0.     -.015
CQUAD4   25519   2       25601   25602   25681   25680   0.     -.015
CQUAD4   25520   2       25602   12879   12960   25681   0.     -.015
CQUAD4   25521   2       12880   25603   25682   12961   0.     -.015
CQUAD4   25522   2       25603   25604   25683   25682   0.     -.015
CQUAD4   25523   2       25604   25605   25684   25683   0.     -.015
CQUAD4   25524   2       25605   25606   25685   25684   0.     -.015
CQUAD4   25525   2       25606   25607   25686   25685   0.     -.015
CQUAD4   25526   2       25607   25608   25687   25686   0.     -.015
CQUAD4   25527   2       25608   25609   25688   25687   0.     -.015
CQUAD4   25528   2       25609   25610   25689   25688   0.     -.015
CQUAD4   25529   2       25610   25611   25690   25689   0.     -.015
CQUAD4   25530   2       25611   25612   25691   25690   0.     -.015
CQUAD4   25531   2       25612   25613   25692   25691   0.     -.015
CQUAD4   25532   2       25613   25614   25693   25692   0.     -.015
CQUAD4   25533   2       25614   25615   25694   25693   0.     -.015
CQUAD4   25534   2       25615   25616   25695   25694   0.     -.015
CQUAD4   25535   2       25616   25617   25696   25695   0.     -.015
CQUAD4   25536   2       25617   25618   25697   25696   0.     -.015
CQUAD4   25537   2       25618   25619   25698   25697   0.     -.015
CQUAD4   25538   2       25619   25620   25699   25698   0.     -.015
CQUAD4   25539   2       25620   25621   25700   25699   0.     -.015
CQUAD4   25540   2       25621   25622   25701   25700   0.     -.015
CQUAD4   25541   2       25622   25623   25702   25701   0.     -.015
CQUAD4   25542   2       25623   25624   25703   25702   0.     -.015
CQUAD4   25543   2       25624   25625   25704   25703   0.     -.015
CQUAD4   25544   2       25625   25626   25705   25704   0.     -.015
CQUAD4   25545   2       25626   25627   25706   25705   0.     -.015
CQUAD4   25546   2       25627   25628   25707   25706   0.     -.015
CQUAD4   25547   2       25628   25629   25708   25707   0.     -.015
CQUAD4   25548   2       25629   25630   25709   25708   0.     -.015
CQUAD4   25549   2       25630   25631   25710   25709   0.     -.015
CQUAD4   25550   2       25631   25632   25711   25710   0.     -.015
CQUAD4   25551   2       25632   25633   25712   25711   0.     -.015
CQUAD4   25552   2       25633   25634   25713   25712   0.     -.015
CQUAD4   25553   2       25634   25635   25714   25713   0.     -.015
CQUAD4   25554   2       25635   25636   25715   25714   0.     -.015
CQUAD4   25555   2       25636   25637   25716   25715   0.     -.015
CQUAD4   25556   2       25637   25638   25717   25716   0.     -.015
CQUAD4   25557   2       25638   25639   25718   25717   0.     -.015
CQUAD4   25558   2       25639   25640   25719   25718   0.     -.015
CQUAD4   25559   2       25640   25641   25720   25719   0.     -.015
CQUAD4   25560   2       25641   25642   25721   25720   0.     -.015
CQUAD4   25561   2       25642   25643   25722   25721   0.     -.015
CQUAD4   25562   2       25643   25644   25723   25722   0.     -.015
CQUAD4   25563   2       25644   25645   25724   25723   0.     -.015
CQUAD4   25564   2       25645   25646   25725   25724   0.     -.015
CQUAD4   25565   2       25646   25647   25726   25725   0.     -.015
CQUAD4   25566   2       25647   25648   25727   25726   0.     -.015
CQUAD4   25567   2       25648   25649   25728   25727   0.     -.015
CQUAD4   25568   2       25649   25650   25729   25728   0.     -.015
CQUAD4   25569   2       25650   25651   25730   25729   0.     -.015
CQUAD4   25570   2       25651   25652   25731   25730   0.     -.015
CQUAD4   25571   2       25652   25653   25732   25731   0.     -.015
CQUAD4   25572   2       25653   25654   25733   25732   0.     -.015
CQUAD4   25573   2       25654   25655   25734   25733   0.     -.015
CQUAD4   25574   2       25655   25656   25735   25734   0.     -.015
CQUAD4   25575   2       25656   25657   25736   25735   0.     -.015
CQUAD4   25576   2       25657   25658   25737   25736   0.     -.015
CQUAD4   25577   2       25658   25659   25738   25737   0.     -.015
CQUAD4   25578   2       25659   25660   25739   25738   0.     -.015
CQUAD4   25579   2       25660   25661   25740   25739   0.     -.015
CQUAD4   25580   2       25661   25662   25741   25740   0.     -.015
CQUAD4   25581   2       25662   25663   25742   25741   0.     -.015
CQUAD4   25582   2       25663   25664   25743   25742   0.     -.015
CQUAD4   25583   2       25664   25665   25744   25743   0.     -.015
CQUAD4   25584   2       25665   25666   25745   25744   0.     -.015
CQUAD4   25585   2       25666   25667   25746   25745   0.     -.015
CQUAD4   25586   2       25667   25668   25747   25746   0.     -.015
CQUAD4   25587   2       25668   25669   25748   25747   0.     -.015
CQUAD4   25588   2       25669   25670   25749   25748   0.     -.015
CQUAD4   25589   2       25670   25671   25750   25749   0.     -.015
CQUAD4   25590   2       25671   25672   25751   25750   0.     -.015
CQUAD4   25591   2       25672   25673   25752   25751   0.     -.015
CQUAD4   25592   2       25673   25674   25753   25752   0.     -.015
CQUAD4   25593   2       25674   25675   25754   25753   0.     -.015
CQUAD4   25594   2       25675   25676   25755   25754   0.     -.015
CQUAD4   25595   2       25676   25677   25756   25755   0.     -.015
CQUAD4   25596   2       25677   25678   25757   25756   0.     -.015
CQUAD4   25597   2       25678   25679   25758   25757   0.     -.015
CQUAD4   25598   2       25679   25680   25759   25758   0.     -.015
CQUAD4   25599   2       25680   25681   25760   25759   0.     -.015
CQUAD4   25600   2       25681   12960   13041   25760   0.     -.015
$ Referenced Material Records
$ Material Record : Al
$ Description of Material :
$MAT1     1      1.595+7 5.864+6 .36     4.143-4                         +E
$+E      75000.  75000.  75000.
MAT1     1      1.595+7 5.864+6 .36     0.1                             +E
+E      75000.  75000.  75000.
$ Loads for Load Case : DEFAULT.SC1
SPCADD   2       1
$LOAD     3      1.      1.       1      1.       4
LOAD     3      1.      1.       4  
$ Displacement Constraints of Load Set : spc1.1
SPC1     1       123456  12961   THRU    13041
SPC1     1       123456  25682   THRU    25760
$ Nodal Forces of Load Set : load-z
FORCE    4       26019   0      25000.   0.      0.     1.
$ Angular Velocity Loading of Load Set : rforce.1
$RFORCE   1       0       0      141.5   1.       0.      0.      1
$ Referenced Coordinate Frames
ENDDATA efcb30ff
