ID MSC, gag16 $ v2001 tin 12-oct-2000
SOL 200
TIME 999
DIAG 8,15 $
CEND
TITLE = GAG16 - TASK 16 test 
SUBTITLE = additional frequenctly used function for DEQATN and integrated response via DRESP1 
LABEL = SUM, AVG, SSQ, RSS, DB, INVDB, DBA, INVDBA, and MAX, MIN
SET 68 = 69
SET 67 = 1014,1062
DISP(SORT2,PHASE) = 68
ANALYSIS=MFREQ
FREQ = 1
SDAMPING = 1
DLOAD = 21
METHOD(STRUCT) = 2
METHOD(FLUID) =1
VELO(SORT2,PHASE) = 67
DSAPRT = ALL
DESOBJ = 100
DESSUB = 200
DSAPRT(END=SENS) = ALL
BEGIN BULK
ACMODL  IDENT
CHEXA   1001    335     1001    1002    1007    1006    1026    1027     E   113
+E   1131032    1031
CHEXA   1002    335     1002    1003    1008    1007    1027    1028     E   114
+E   1141033    1032
CHEXA   1003    335     1003    1004    1009    1008    1028    1029     E   115
+E   1151034    1033
CHEXA   1004    335     1004    1005    1010    1009    1029    1030     E   116
+E   1161035    1034
CHEXA   1005    335     1006    1007    1012    1011    1031    1032     E   117
+E   1171037    1036
CHEXA   1006    335     1007    1008    1013    1012    1032    1033     E   118
+E   1181038    1037
CHEXA   1007    335     1008    1009    1014    1013    1033    1034     E   119
+E   1191039    1038
CHEXA   1008    335     1009    1010    1015    1014    1034    1035     E   120
+E   1201040    1039
CHEXA   1009    335     1011    1012    1017    1016    1036    1037     E   121
+E   1211042    1041
CHEXA   1010    335     1012    1013    1018    1017    1037    1038     E   122
+E   1221043    1042
CHEXA   1011    335     1013    1014    1019    1018    1038    1039     E   123
+E   1231044    1043
CHEXA   1012    335     1014    1015    1020    1019    1039    1040     E   124
+E   1241045    1044
CHEXA   1013    335     1016    1017    1022    1021    1041    1042     E   125
+E   1251047    1046
CHEXA   1014    335     1017    1018    1023    1022    1042    1043     E   126
+E   1261048    1047
CHEXA   1015    335     1018    1019    1024    1023    1043    1044     E   127
+E   1271049    1048
CHEXA   1016    335     1019    1020    1025    1024    1044    1045     E   128
+E   1281050    1049
CHEXA   1017    335     1026    1027    1032    1031    1051    1052     E   129
+E   1291057    1056
CHEXA   1018    335     1027    1028    1033    1032    1052    1053     E   130
+E   1301058    1057
CHEXA   1019    335     1028    1029    1034    1033    1053    1054     E   131
+E   1311059    1058
CHEXA   1020    335     1029    1030    1035    1034    1054    1055     E   132
+E   1321060    1059
$ ... 120 like lines cut
CQUAD4  1       431     1       61      64      2       0.000
CQUAD4  2       431     61      62      65      64      0.000
CQUAD4  3       431     62      63      66      65      0.000
CQUAD4  4       431     63      31      32      66      0.000
CQUAD4  5       431     2       64      67      3       0.000
CQUAD4  6       431     64      65      68      67      0.000
CQUAD4  7       431     65      66      69      68      0.000
CQUAD4  8       431     66      32      33      69      0.000
CQUAD4  9       431     3       67      70      4       0.000
CQUAD4  10      431     67      68      71      70      0.000
CQUAD4  11      431     68      69      72      71      0.000
CQUAD4  12      431     69      33      34      72      0.000
CQUAD4  13      431     4       70      73      5       0.000
CQUAD4  14      431     70      71      74      73      0.000
CQUAD4  15      431     71      72      75      74      0.000
CQUAD4  16      431     72      34      35      75      0.000
CQUAD4  17      431     26      76      79      27      0.000
CQUAD4  18      431     76      77      80      79      0.000
CQUAD4  19      431     77      78      81      80      0.000
CQUAD4  20      431     78      56      57      81      0.000
$ ... 92 like lines cut
DAREA   1001    69      1       1.+8
DESVAR  1       THICK   0.5
DVPREL1 1       PSHELL  431     4                                        
        1       1.0                                                      
DRESP1  100     WEIGHT  WEIGHT
DRESP1  10001   PRES    FRDISP                  1       10.0    99
DRESP1  10002   PRES    FRDISP                  1       18.0    99
DRESP1  10003   PRES    FRDISP                  1       32.0    99
DRESP1  10004   PRES    FRDISP                  1       45.0    99
DRESP1  10005   PRES    FRDISP                  1       48.0    99
DRESP1  10006   PRES    FRDISP                  1       60.0    99
DRESP1  10007   PRES    FRDISP                  1       70.0    99
DRESP1  40003   PRES    FRVELO                  1       10.0    1041
DRESP1  40004   PRES    FRVELO                  1       50.0    1061
DRESP1  20001   PRES    FRVELO                  1       SUM     1021
DRESP1  20002   PRES    FRVELO                  1       AVG     1021
DRESP1  20003   PRES    FRVELO                  1       SSQ     1021
DRESP1  20004   PRES    FRVELO                  1       RSS     1021
DRESP1  200051  PRES    FRVELO                  1       MAX     1041
DRESP1  200052  PRES    FRVELO                  1       MAX     1061
DRESP1  200061  PRES    FRVELO                  1       MIN     1041
DRESP1  200062  PRES    FRVELO                  1       MIN     1061
DRESP2  30001   SUMMATIO301                                              
        DRESP1  10001   10002   10003   10004   10005   10006   10007    
DRESP2  30002   AVERAGE 302                                              
        DRESP1  10001   10002   10003   10004   10005   10006   10007    
DRESP2  30003   SUMOFSQ 303                                              
        DRESP1  10001   10002   10003   10004   10005   10006   10007    
DRESP2  30004   RTSUMSQ 304                                              
        DRESP1  10001   10002   10003   10004   10005   10006   10007    
DRESP2  30005   DB      305
        DTABLE  PREF
        DRESP1  40003
DRESP2  30006   INVDB   306
        DTABLE  PREF
        DRESP2  30005
DRESP2  30007   DBA     307
        DTABLE  PREF    FREQ
        DRESP1  40004
DRESP2  30008   INVDBA  308
        DTABLE  PREF    FREQ
        DRESP2  30007
DTABLE  PREF    1.0     FREQ    50.0
DEQATN  301     Z(A,B,C,D,E,F,G)=SUM(A,B,C,D,E,F,G)
DEQATN  302     Z(A,B,C,D,E,F,G)=AVG(A,B,C,D,E,F,G)
DEQATN  303     Z(A,B,C,D,E,F,G)=SSQ(A,B,C,D,E,F,G)
DEQATN  304     Z(A,B,C,D,E,F,G)=RSS(A,B,C,D,E,F,G)
DEQATN  305     Z(PREF,P)=DB(P,PREF)
DEQATN  306     Z(PREF,DB)=INVDB(DB,PREF)
DEQATN  307     Z(PREF,F,P)=DBA(P,PREF,F)
DEQATN  308     Z(PREF,F,DBA)=INVDBA(DBA,PREF,F)
DSCREEN EQUA    -100.
DCONSTR 200     20001   200.    300.
DCONSTR 200     20002   200.    300.
DCONSTR 200     20003   200.    300.
DCONSTR 200     20004   200.    300.
DCONSTR 200     200051  200.    300.
DCONSTR 200     200052  200.    300.
DCONSTR 200     200061  200.    300.
DCONSTR 200     200062  200.    300.
DCONSTR 200     30001   200.    300.
DCONSTR 200     30002   200.    300.
DCONSTR 200     30003   200.    300.
DCONSTR 200     30004   200.    300.
DCONSTR 200     30005   200.    300.
DCONSTR 200     30006   200.    300.
DCONSTR 200     30007   200.    300.
DCONSTR 200     30008   200.    300.
EIGRL   1       1.0     160.                                    MASS
EIGRL   2       1.0     120.                                    MAX
FREQ    1       10.     20.     30.     40.     50.     60.     70.      
        80.     90.     100.                                             
GRID    1               0.      -850.0000.
GRID    2               0.      -850.000325.000
GRID    3               0.      -850.000650.000
GRID    4               0.      -850.000975.000
GRID    5               0.      -850.0001300.00
GRID    6               440.000 -850.0000.
GRID    7               440.000 -850.000325.000
GRID    8               440.000 -850.000650.000
GRID    9               440.000 -850.000975.000
GRID    10              440.000 -850.0001300.00
GRID    11              880.000 -850.0000.
GRID    12              880.000 -850.000325.000
GRID    13              880.000 -850.000650.000
GRID    14              880.000 -850.000975.000
GRID    15              880.000 -850.0001300.00
GRID    16              1320.00 -850.0000.
GRID    17              1320.00 -850.000325.000
GRID    18              1320.00 -850.000650.000
GRID    19              1320.00 -850.000975.000
GRID    20              1320.00 -850.0001300.00
$ ... 244 like lines cut
MAT1    442     21000.0 8000.00 0.3125  1.000-9
MAT1    443     2100.0  800.    0.3125  1.00-10
MAT1    444     21000.0 8000.00 0.3125  1.00-10
MAT10   445     0.1425  1.205-12
PARAM   COUPMASS1
PARAM   LMODES  500
PARAM   MODACC  -1
PSHELL  431     442     40.0000 442
PSHELL  332     443     20.0000 444
PSHELL  333     442     3.00000 442
PSHELL  334     443     30.0000 444
PSOLID  331     442
PSOLID  335     445     0       2               1       PFLUID
RLOAD1  21      1001                    1
TABDMP1 1                                                               +TB1
+TB1    -1.+4   -.04    0.      -.04    1.      +.08    1.+4    +.08    +TB2
+TB2    ENDT
TABLED1 1                                                               +TD1
+TD1    0.      1.      1000.   1.      ENDT
PARAM,POST,-1
ENDDATA
