$EXECUTIVE CONTROL DECK
SOL 101
CEND
$CASE CONTROL DECK
TITLE = pyNastran Test
SUBCASE 1
    SUBTITLE = p.561 10.2.4
    LOAD = 123
    SPCFORCE(PLOT,PRINT)  = ALL
    MPCFORCE(PLOT,PRINT)  = ALL
    $OEF(PLOT,PRINT) = ALL
    OLOAD(PLOT,PRINT) = ALL
    GPSTRESS(PLOT,PRINT) = ALL
    GPSTRAIN(PLOT,PRINT) = ALL
    FORCE(PLOT,PRINT)  = ALL
    DISP(PLOT,PRINT)   = ALL
    STRESS(PLOT,PRINT) = ALL
    STRAIN(PLOT,PRINT) = ALL
BEGIN BULK
$
$        ^ F=1000 lb
$        |
$ 1---A--2   E=10E6 psi
$            Area A=1.0 in^2
$                 J=2.0 in^2
$          stress C=2.0 in^2

$NODES
PARAM,POST,-1
GRID,1,, 0.,20.,0.,,123456
GRID,2,,40.,20.,0.,,  2356
CONROD,1,1,2,99,1.,7.0,11.0
MAT1,99,10.E6,,0.3
FORCE,123,2,,1000.,3.,5.,0.
MOMENT,123,2,,1000.,13.,0.,0.
ENDDATA
