SOL 101

CEND
DISP(PRINT) = ALL
SPCFORCES(PLOT,PRINT) = ALL
SPC = 42
SUBCASE 1
    LOAD = 1
SUBCASE 2
    LOAD = 2
SUBCASE 3
    LOAD = 3
SUBCASE 4
    LOAD = 4
SUBCASE 5
    LOAD = 5
SUBCASE 6
    LOAD = 6
SUBCASE 7
    LOAD = 7
SUBCASE 8
    LOAD = 8
SUBCASE 9
    LOAD = 9
SUBCASE 10
    LOAD = 10
SUBCASE 11
    LOAD = 11
SUBCASE 12
    LOAD = 12
SUBCASE 13
    LOAD = 13
SUBCASE 14
    LOAD = 14
SUBCASE 15
    LOAD = 15
SUBCASE 16
    LOAD = 16
SUBCASE 17
    LOAD = 17
SUBCASE 18
    LOAD = 18
SUBCASE 19
    LOAD = 19
SUBCASE 20
    LOAD = 20
SUBCASE 21
    LOAD = 21
SUBCASE 22
    LOAD = 22
BEGIN BULK
PARAM,POST,-1

SPC1,42,123456,21,22,23
SPC1,42,456,22,23,24,25,26
GRID, 21, 0, 0., 0., 0.
GRID, 22, 0, 1., 0., 0.
GRID, 23, 0, 1., 1., 0.
GRID, 24, 0, 0., 0., 2.
GRID, 25, 0, 1., 0., 2.
GRID, 26, 0, 1., 1., 2.
CPENTA, 9, 1, 21, 22, 23, 24, 25, 26

PLOAD4, 1, 9, 1.0, , , , 21, 25
PLOAD4, 2, 9, 1.0, , , , 22, 24
PLOAD4, 3, 9, 1.0, , , , 25, 21
PLOAD4, 4, 9, 1.0, , , , 24, 22

PLOAD4, 5, 9, 1.0, , , , 21, 25
PLOAD4, 6, 9, 1.0, , , , 22, 24
PLOAD4, 7, 9, 1.0, , , , 25, 21
PLOAD4, 8, 9, 1.0, , , , 24, 22

PLOAD4, 9, 9, 1.0, , , , 22, 26
PLOAD4, 10, 9, 1.0, , , , 23, 25
PLOAD4, 11, 9, 1.0, , , , 26, 22
$PLOAD4, 11, 9, 1.0, , , , 25, 22
PLOAD4, 12, 9, 1.0, , , , 25, 23

PLOAD4, 13, 9, 1.0, , , , 21, 26
PLOAD4, 14, 9, 1.0, , , , 23, 24
PLOAD4, 15, 9, 1.0, , , , 26, 21
PLOAD4, 16, 9, 1.0, , , , 24, 23

PLOAD4, 17, 9, 1.0, , , , 21
PLOAD4, 18, 9, 1.0, , , , 22
PLOAD4, 19, 9, 1.0, , , , 23

PLOAD4, 20, 9, 1.0, , , , 24
PLOAD4, 21, 9, 1.0, , , , 25
PLOAD4, 22, 9, 1.0, , , , 26

PSOLID, 1, 1
MAT1, 1, 3.0e7,,0.3

ENDDATA
