SOL 101

CEND
DISP(PRINT) = ALL
SPCFORCES(PLOT,PRINT) = ALL
SPC = 42
SUBCASE 1
    LOAD = 1
SUBCASE 2
    LOAD = 2
BEGIN BULK
PARAM,POST,-1

SPC1,42,123456,21,22
$SPC1,42,456,22,23
GRID, 21, 0, 0., 0., 0.
GRID, 22, 0, 1., 0., 0.
GRID, 23, 0, 1., 1., 0.
GRID, 24, 0, 0., 1., 0.
CQUAD4, 9, 10, 21, 22, 23, 24

PLOAD4, 1, 9, 1.0
PLOAD4, 2, 9, 1.0

PSHELL, 10, 1, 0.1
MAT1, 1, 3.0e7,,0.3

ENDDATA
