SOL 101

CEND
DISP(PRINT) = ALL
SPCFORCES(PLOT,PRINT) = ALL
SPC = 42
SUBCASE 1
    LOAD = 1
SUBCASE 2
    LOAD = 2
SUBCASE 3
    LOAD = 3
SUBCASE 4
    LOAD = 4
SUBCASE 5
    LOAD = 5
SUBCASE 6
    LOAD = 6
BEGIN BULK
PARAM,POST,-1

SPC1,42,123456,21,22
$SPC1,42,456,22,23
GRID, 21, 0, 0., 0., 0.
GRID, 22, 0, 1., 0., 0.
GRID, 23, 0, 1., 1., 0.
CTRIA3, 9, 10, 21, 22, 23

PLOAD4, 1, 9, 1.0
PLOAD4, 2, 9, 1.0
PLOAD4, 3, 9, 1.0
PLOAD4, 3, 9, 2.0
PLOAD4, 4, 9, 1.0, 2.0
PLOAD4, 5, 9, 1.0, 2.0, 3.14
PLOAD4, 6, 9, 1.0, 3.14, 1.67

LOAD, 7, 5., 7., 1
LOAD, 8, 13., 11., 1, 17., 5, 1.1, 7

PSHELL, 10, 1, 0.1
MAT1, 1, 3.0e7,,0.3

ENDDATA
